<?xml version="1.0" encoding="UTF-8"?>

<!-- generated on 2026-05-14T12:29:58.171961+01:00 by Eclipse SUMO netedit 1.26.0
<neteditConfiguration xmlns:xsi="http://www.w3.org/2001/XMLSchema-instance" xsi:noNamespaceSchemaLocation="http://sumo.dlr.de/xsd/neteditConfiguration.xsd">

    <input>
        <sumo-net-file value="D:\Intersection_RL\city_map.net.xml"/>
    </input>

    <output>
        <output-file value="D:\Intersection_RL\city_map.net.xml"/>
    </output>

    <processing>
        <offset.disable-normalization value="true"/>
    </processing>

    <junctions>
        <no-turnarounds value="true"/>
    </junctions>

    <netedit>
        <new-network value="false"/>
    </netedit>

</neteditConfiguration>
-->

<net version="1.20" junctionCornerDetail="5" limitTurnSpeed="5.50" xmlns:xsi="http://www.w3.org/2001/XMLSchema-instance" xsi:noNamespaceSchemaLocation="http://sumo.dlr.de/xsd/net_file.xsd">

    <location netOffset="0.00,0.00" convBoundary="-328.42,-148.38,52.72,61.58" origBoundary="10000000000.00,10000000000.00,-10000000000.00,-10000000000.00" projParameter="!"/>

    <edge id=":J0_0" function="internal">
        <lane id=":J0_0_0" index="0" speed="10.99" length="27.02" shape="-141.64,14.03 -143.21,10.12 -147.62,7.32 -154.88,5.63 -164.99,5.06"/>
    </edge>
    <edge id=":J0_1" function="internal">
        <lane id=":J0_1_0" index="0" speed="13.89" length="24.34" shape="-141.64,14.03 -141.63,-10.31"/>
    </edge>
    <edge id=":J0_2" function="internal">
        <lane id=":J0_2_0" index="0" speed="9.27" length="7.73" shape="-141.64,14.03 -141.28,7.32 -140.97,6.36"/>
    </edge>
    <edge id=":J0_17" function="internal">
        <lane id=":J0_17_0" index="0" speed="9.27" length="12.11" shape="-140.97,6.36 -139.72,2.52 -136.96,-0.36 -132.99,-1.33"/>
    </edge>
    <edge id=":J0_3" function="internal">
        <lane id=":J0_3_0" index="0" speed="6.44" length="9.03" shape="-132.97,8.27 -135.43,8.63 -137.16,9.69 -138.17,11.46 -138.44,13.93"/>
    </edge>
    <edge id=":J0_4" function="internal">
        <lane id=":J0_4_0" index="0" speed="13.89" length="32.21" shape="-132.97,8.27 -142.90,7.79 -150.86,6.68 -157.88,5.57 -164.99,5.06"/>
        <lane id=":J0_4_1" index="1" speed="13.89" length="32.21" shape="-132.98,5.07 -142.90,4.59 -150.86,3.48 -157.88,2.37 -164.99,1.86"/>
    </edge>
    <edge id=":J0_6" function="internal">
        <lane id=":J0_6_0" index="0" speed="13.89" length="6.33" shape="-132.98,1.87 -139.21,0.75"/>
    </edge>
    <edge id=":J0_7" function="internal">
        <lane id=":J0_7_0" index="0" speed="8.60" length="4.24" shape="-132.98,1.87 -136.96,1.12 -137.11,1.00"/>
    </edge>
    <edge id=":J0_18" function="internal">
        <lane id=":J0_18_0" index="0" speed="13.89" length="28.17" shape="-139.21,0.75 -143.48,-0.03 -152.27,-4.46 -159.03,-9.40 -163.44,-12.87"/>
    </edge>
    <edge id=":J0_19" function="internal">
        <lane id=":J0_19_0" index="0" speed="8.60" length="12.86" shape="-137.11,1.00 -139.72,-1.16 -141.28,-4.97 -141.63,-10.31"/>
    </edge>
    <edge id=":J0_8" function="internal">
        <lane id=":J0_8_0" index="0" speed="6.41" length="9.04" shape="-138.44,-10.18 -138.18,-7.70 -137.19,-5.93 -135.46,-4.87 -133.00,-4.53"/>
    </edge>
    <edge id=":J0_9" function="internal">
        <lane id=":J0_9_0" index="0" speed="13.89" length="24.11" shape="-138.44,-10.18 -138.44,13.93"/>
    </edge>
    <edge id=":J0_10" function="internal">
        <lane id=":J0_10_0" index="0" speed="11.94" length="2.27" shape="-138.44,-10.18 -139.18,-8.04"/>
    </edge>
    <edge id=":J0_11" function="internal">
        <lane id=":J0_11_0" index="0" speed="9.75" length="1.87" shape="-138.44,-10.18 -139.22,-8.48"/>
    </edge>
    <edge id=":J0_20" function="internal">
        <lane id=":J0_20_0" index="0" speed="11.94" length="29.61" shape="-139.18,-8.04 -140.28,-4.90 -145.32,-1.13 -153.56,1.12 -164.99,1.86"/>
    </edge>
    <edge id=":J0_21" function="internal">
        <lane id=":J0_21_0" index="0" speed="9.75" length="28.62" shape="-139.22,-8.48 -140.89,-4.83 -146.73,-4.48 -154.67,-7.65 -163.44,-12.87"/>
    </edge>
    <edge id=":J0_12" function="internal">
        <lane id=":J0_12_0" index="0" speed="5.48" length="10.74" shape="-164.97,-7.74 -161.37,-8.06 -159.91,-9.02 -160.60,-10.62 -163.44,-12.87"/>
    </edge>
    <edge id=":J0_13" function="internal">
        <lane id=":J0_13_0" index="0" speed="10.37" length="23.81" shape="-164.97,-7.74 -154.80,-7.89 -147.52,-8.37 -143.13,-9.18 -141.63,-10.31"/>
    </edge>
    <edge id=":J0_14" function="internal">
        <lane id=":J0_14_0" index="0" speed="13.89" length="32.17" shape="-164.97,-7.74 -155.06,-7.23 -147.11,-6.12 -140.10,-5.02 -133.00,-4.53"/>
        <lane id=":J0_14_1" index="1" speed="13.89" length="32.17" shape="-164.98,-4.54 -155.06,-4.03 -147.11,-2.92 -140.10,-1.82 -132.99,-1.33"/>
    </edge>
    <edge id=":J0_16" function="internal">
        <lane id=":J0_16_0" index="0" speed="12.29" length="16.19" shape="-164.98,-1.34 -153.55,-0.37 -149.10,1.18"/>
    </edge>
    <edge id=":J0_22" function="internal">
        <lane id=":J0_22_0" index="0" speed="12.29" length="17.86" shape="-149.10,1.18 -145.32,2.49 -140.28,7.26 -138.44,13.93"/>
    </edge>
    <edge id=":J1_0" function="internal">
        <lane id=":J1_0_0" index="0" speed="13.89" length="20.86" shape="-10.65,-10.40 -10.63,10.46"/>
    </edge>
    <edge id=":J1_1" function="internal">
        <lane id=":J1_1_0" index="0" speed="8.67" length="5.64" shape="-10.65,-10.40 -11.17,-5.14 -11.31,-4.81"/>
    </edge>
    <edge id=":J1_6" function="internal">
        <lane id=":J1_6_0" index="0" speed="8.67" length="11.25" shape="-11.31,-4.81 -12.80,-1.37 -15.55,0.89 -19.42,1.64"/>
    </edge>
    <edge id=":J1_2" function="internal">
        <lane id=":J1_2_0" index="0" speed="6.50" length="9.04" shape="-19.43,-4.76 -16.98,-5.11 -15.23,-6.17 -14.19,-7.92 -13.85,-10.37"/>
    </edge>
    <edge id=":J1_3" function="internal">
        <lane id=":J1_3_0" index="0" speed="8.66" length="16.89" shape="-19.43,-1.56 -15.56,-0.81 -12.80,1.44 -11.16,5.20 -10.63,10.46"/>
    </edge>
    <edge id=":J1_4" function="internal">
        <lane id=":J1_4_0" index="0" speed="6.49" length="9.03" shape="-13.83,10.44 -14.17,7.99 -15.21,6.24 -16.96,5.19 -19.41,4.84"/>
    </edge>
    <edge id=":J1_5" function="internal">
        <lane id=":J1_5_0" index="0" speed="13.89" length="20.82" shape="-13.83,10.44 -13.85,-10.37"/>
    </edge>
    <edge id=":J14_0" function="internal">
        <lane id=":J14_0_0" index="0" speed="13.89" length="8.54" shape="-227.28,4.98 -229.74,5.48 -231.28,6.58 -232.82,7.68 -235.28,8.17"/>
        <lane id=":J14_0_1" index="1" speed="13.89" length="8.54" shape="-227.27,1.78 -229.73,2.28 -231.27,3.38 -232.81,4.48 -235.28,4.97"/>
        <lane id=":J14_0_2" index="2" speed="13.89" length="8.54" shape="-227.27,1.78 -235.27,1.77"/>
    </edge>
    <edge id=":J15_0" function="internal">
        <lane id=":J15_0_0" index="0" speed="13.89" length="8.54" shape="-183.84,-4.56 -181.38,-5.06 -179.84,-6.16 -178.30,-7.26 -175.84,-7.75"/>
        <lane id=":J15_0_1" index="1" speed="13.89" length="8.54" shape="-183.85,-1.36 -181.39,-1.86 -179.85,-2.96 -178.31,-4.06 -175.84,-4.55"/>
        <lane id=":J15_0_2" index="2" speed="13.89" length="8.54" shape="-183.85,-1.36 -175.85,-1.35"/>
    </edge>
    <edge id=":J16_0" function="internal">
        <lane id=":J16_0_0" index="0" speed="13.89" length="8.40" shape="-41.43,-89.43 -39.00,-90.07 -37.53,-91.26 -36.06,-92.45 -33.63,-93.10"/>
        <lane id=":J16_0_1" index="1" speed="13.89" length="8.40" shape="-41.43,-89.43 -33.44,-89.90"/>
    </edge>
    <edge id=":J17_0" function="internal">
        <lane id=":J17_0_0" index="0" speed="13.89" length="8.54" shape="-116.67,5.04 -119.13,5.55 -120.67,6.65 -122.20,7.75 -124.66,8.26"/>
        <lane id=":J17_0_1" index="1" speed="13.89" length="8.54" shape="-116.68,1.84 -119.14,2.35 -120.67,3.45 -122.21,4.55 -124.67,5.06"/>
        <lane id=":J17_0_2" index="2" speed="13.89" length="8.54" shape="-116.68,1.84 -124.68,1.86"/>
    </edge>
    <edge id=":J3_0" function="internal">
        <lane id=":J3_0_0" index="0" speed="8.70" length="16.80" shape="-258.72,16.67 -261.61,11.05 -264.42,7.36 -267.12,5.59 -269.73,5.74"/>
    </edge>
    <edge id=":J3_1" function="internal">
        <lane id=":J3_1_0" index="0" speed="13.89" length="28.23" shape="-258.72,16.67 -260.90,9.17 -261.66,1.18 -261.55,-6.02 -261.10,-11.19"/>
    </edge>
    <edge id=":J3_2" function="internal">
        <lane id=":J3_2_0" index="0" speed="8.85" length="12.81" shape="-255.80,15.36 -258.20,8.00 -257.89,2.94"/>
    </edge>
    <edge id=":J3_13" function="internal">
        <lane id=":J3_13_0" index="0" speed="8.85" length="10.46" shape="-257.89,2.94 -257.87,2.75 -254.82,-0.40 -249.04,-1.45"/>
    </edge>
    <edge id=":J3_3" function="internal">
        <lane id=":J3_3_0" index="0" speed="5.79" length="9.15" shape="-249.05,8.16 -251.71,8.52 -253.24,9.63 -253.63,11.47 -252.87,14.06"/>
    </edge>
    <edge id=":J3_4" function="internal">
        <lane id=":J3_4_0" index="0" speed="13.89" length="20.82" shape="-249.04,4.96 -256.00,4.79 -261.55,4.59 -266.02,4.77 -269.73,5.74"/>
    </edge>
    <edge id=":J3_5" function="internal">
        <lane id=":J3_5_0" index="0" speed="9.18" length="3.73" shape="-249.04,1.76 -252.74,1.24"/>
    </edge>
    <edge id=":J3_14" function="internal">
        <lane id=":J3_14_0" index="0" speed="9.18" length="17.03" shape="-252.74,1.24 -254.90,0.94 -258.87,-1.49 -260.93,-5.53 -261.10,-11.19"/>
    </edge>
    <edge id=":J3_6" function="internal">
        <lane id=":J3_6_0" index="0" speed="6.41" length="9.52" shape="-254.74,-10.41 -254.65,-7.89 -253.66,-6.09 -251.79,-5.01 -249.03,-4.65"/>
    </edge>
    <edge id=":J3_7" function="internal">
        <lane id=":J3_7_0" index="0" speed="13.89" length="24.75" shape="-254.74,-10.41 -255.25,-3.05 -255.03,3.83 -254.20,9.70 -252.87,14.06"/>
    </edge>
    <edge id=":J3_8" function="internal">
        <lane id=":J3_8_0" index="0" speed="12.45" length="5.09" shape="-257.92,-10.80 -259.07,-5.85"/>
    </edge>
    <edge id=":J3_15" function="internal">
        <lane id=":J3_15_0" index="0" speed="12.45" length="16.23" shape="-259.07,-5.85 -259.21,-5.25 -261.60,-0.64 -265.11,3.02 -269.73,5.74"/>
    </edge>
    <edge id=":J3_9" function="internal">
        <lane id=":J3_9_0" index="0" speed="11.47" length="17.98" shape="-271.00,2.80 -267.13,0.52 -264.19,-2.58 -262.18,-6.48 -261.10,-11.19"/>
    </edge>
    <edge id=":J3_10" function="internal">
        <lane id=":J3_10_0" index="0" speed="13.89" length="22.98" shape="-271.00,2.80 -267.04,0.80 -262.05,-1.67 -256.04,-3.77 -249.03,-4.65"/>
        <lane id=":J3_10_1" index="1" speed="13.89" length="22.98" shape="-271.00,2.80 -267.04,1.30 -262.05,-0.07 -256.04,-1.07 -249.04,-1.45"/>
    </edge>
    <edge id=":J3_12" function="internal">
        <lane id=":J3_12_0" index="0" speed="10.31" length="6.62" shape="-271.00,2.80 -265.76,1.72 -264.55,2.11"/>
    </edge>
    <edge id=":J3_16" function="internal">
        <lane id=":J3_16_0" index="0" speed="10.31" length="17.40" shape="-264.55,2.11 -260.99,3.24 -256.70,7.35 -252.87,14.06"/>
    </edge>
    <edge id=":J4_0" function="internal">
        <lane id=":J4_0_0" index="0" speed="5.74" length="9.18" shape="-242.23,-64.57 -244.68,-65.74 -246.55,-65.64 -247.83,-64.28 -248.52,-61.65"/>
    </edge>
    <edge id=":J4_1" function="internal">
        <lane id=":J4_1_0" index="0" speed="13.89" length="18.43" shape="-242.23,-64.57 -245.79,-66.97 -249.79,-69.89 -253.58,-73.02 -256.53,-76.10"/>
    </edge>
    <edge id=":J4_2" function="internal">
        <lane id=":J4_2_0" index="0" speed="8.55" length="13.85" shape="-243.77,-71.95 -246.81,-71.12 -249.15,-69.20 -250.77,-66.17 -251.70,-62.03"/>
    </edge>
    <edge id=":J4_3" function="internal">
        <lane id=":J4_3_0" index="0" speed="10.50" length="13.97" shape="-243.77,-71.95 -247.93,-71.94 -251.44,-72.62 -254.30,-74.01 -256.53,-76.10"/>
    </edge>
    <edge id=":J4_4" function="internal">
        <lane id=":J4_4_0" index="0" speed="12.39" length="14.16" shape="-254.87,-62.42 -254.44,-66.10 -254.32,-69.64 -254.89,-73.00 -256.53,-76.10"/>
    </edge>
    <edge id=":J5_0" function="internal">
        <lane id=":J5_0_0" index="0" speed="6.94" length="9.63" shape="-130.08,-80.95 -132.48,-80.43 -134.23,-79.17 -135.32,-77.18 -135.78,-74.47"/>
    </edge>
    <edge id=":J5_1" function="internal">
        <lane id=":J5_1_0" index="0" speed="13.89" length="14.47" shape="-130.08,-80.95 -144.52,-79.93"/>
    </edge>
    <edge id=":J5_2" function="internal">
        <lane id=":J5_2_0" index="0" speed="8.49" length="13.70" shape="-130.08,-80.95 -133.79,-81.22 -136.73,-82.51 -138.89,-84.82 -140.27,-88.16"/>
    </edge>
    <edge id=":J5_3" function="internal">
        <lane id=":J5_3_0" index="0" speed="7.07" length="9.24" shape="-137.18,-88.96 -136.24,-86.73 -134.78,-85.18 -132.79,-84.32 -130.27,-84.15"/>
    </edge>
    <edge id=":J5_4" function="internal">
        <lane id=":J5_4_0" index="0" speed="13.89" length="14.61" shape="-137.18,-88.96 -136.40,-85.36 -135.93,-81.77 -135.73,-78.16 -135.78,-74.47"/>
    </edge>
    <edge id=":J5_5" function="internal">
        <lane id=":J5_5_0" index="0" speed="7.47" length="3.95" shape="-137.18,-88.96 -136.83,-85.30 -136.93,-85.04"/>
    </edge>
    <edge id=":J5_9" function="internal">
        <lane id=":J5_9_0" index="0" speed="7.47" length="9.90" shape="-136.93,-85.04 -137.94,-82.57 -140.50,-80.78 -144.52,-79.93"/>
    </edge>
    <edge id=":J5_6" function="internal">
        <lane id=":J5_6_0" index="0" speed="6.26" length="9.05" shape="-138.97,-74.60 -139.23,-77.11 -140.24,-78.83 -142.00,-79.78 -144.52,-79.93"/>
    </edge>
    <edge id=":J5_7" function="internal">
        <lane id=":J5_7_0" index="0" speed="13.89" length="13.68" shape="-138.97,-74.60 -138.91,-78.14 -139.08,-81.44 -139.51,-84.70 -140.27,-88.16"/>
    </edge>
    <edge id=":J5_8" function="internal">
        <lane id=":J5_8_0" index="0" speed="8.37" length="4.05" shape="-138.97,-74.60 -138.29,-78.59"/>
    </edge>
    <edge id=":J5_10" function="internal">
        <lane id=":J5_10_0" index="0" speed="8.37" length="10.37" shape="-138.29,-78.59 -136.61,-81.51 -133.94,-83.36 -130.27,-84.15"/>
    </edge>
    <edge id=":J6_0" function="internal">
        <lane id=":J6_0_0" index="0" speed="6.46" length="9.25" shape="-14.36,-82.15 -14.75,-84.61 -15.87,-86.32 -17.74,-87.28 -20.34,-87.48"/>
    </edge>
    <edge id=":J6_1" function="internal">
        <lane id=":J6_1_0" index="0" speed="13.89" length="17.79" shape="-14.36,-82.15 -14.50,-86.33 -14.82,-91.02 -15.26,-95.71 -15.74,-99.87"/>
    </edge>
    <edge id=":J6_2" function="internal">
        <lane id=":J6_2_0" index="0" speed="8.06" length="3.96" shape="-14.36,-82.15 -13.84,-86.07"/>
    </edge>
    <edge id=":J6_12" function="internal">
        <lane id=":J6_12_0" index="0" speed="8.06" length="10.36" shape="-13.84,-86.07 -12.22,-88.90 -9.49,-90.62 -5.66,-91.24"/>
    </edge>
    <edge id=":J6_3" function="internal">
        <lane id=":J6_3_0" index="0" speed="6.58" length="9.19" shape="-5.61,-88.04 -8.05,-87.64 -9.79,-86.53 -10.83,-84.71 -11.16,-82.17"/>
    </edge>
    <edge id=":J6_4" function="internal">
        <lane id=":J6_4_0" index="0" speed="13.89" length="14.74" shape="-5.61,-88.04 -20.34,-87.48"/>
    </edge>
    <edge id=":J6_5" function="internal">
        <lane id=":J6_5_0" index="0" speed="9.14" length="3.37" shape="-5.61,-88.04 -8.93,-88.63"/>
    </edge>
    <edge id=":J6_13" function="internal">
        <lane id=":J6_13_0" index="0" speed="9.14" length="13.87" shape="-8.93,-88.63 -9.47,-88.73 -12.45,-90.93 -14.53,-94.65 -15.74,-99.87"/>
    </edge>
    <edge id=":J6_6" function="internal">
        <lane id=":J6_6_0" index="0" speed="7.87" length="12.52" shape="-12.56,-100.28 -11.70,-96.29 -10.26,-93.45 -8.25,-91.77 -5.66,-91.24"/>
    </edge>
    <edge id=":J6_7" function="internal">
        <lane id=":J6_7_0" index="0" speed="13.89" length="18.17" shape="-12.56,-100.28 -12.08,-96.06 -11.64,-91.24 -11.30,-86.41 -11.16,-82.17"/>
    </edge>
    <edge id=":J6_8" function="internal">
        <lane id=":J6_8_0" index="0" speed="8.56" length="5.80" shape="-12.56,-100.28 -12.46,-94.89 -12.59,-94.49"/>
    </edge>
    <edge id=":J6_14" function="internal">
        <lane id=":J6_14_0" index="0" speed="8.56" length="11.43" shape="-12.59,-94.49 -13.73,-90.96 -16.35,-88.49 -20.34,-87.48"/>
    </edge>
    <edge id=":J6_9" function="internal">
        <lane id=":J6_9_0" index="0" speed="6.37" length="9.04" shape="-20.72,-93.87 -18.27,-94.37 -16.62,-95.54 -15.78,-97.37 -15.74,-99.87"/>
    </edge>
    <edge id=":J6_10" function="internal">
        <lane id=":J6_10_0" index="0" speed="13.89" length="14.88" shape="-20.53,-90.67 -5.66,-91.24"/>
    </edge>
    <edge id=":J6_11" function="internal">
        <lane id=":J6_11_0" index="0" speed="7.96" length="4.40" shape="-20.53,-90.67 -16.45,-90.35 -16.17,-90.20"/>
    </edge>
    <edge id=":J6_15" function="internal">
        <lane id=":J6_15_0" index="0" speed="7.96" length="10.20" shape="-16.17,-90.20 -13.53,-88.82 -11.77,-86.10 -11.16,-82.17"/>
    </edge>

    <edge id="-E0" from="J1" to="J17" priority="-1">
        <lane id="-E0_0" index="0" speed="13.89" length="97.26" shape="-19.41,4.84 -116.67,5.04"/>
        <lane id="-E0_1" index="1" speed="13.89" length="97.26" shape="-19.42,1.64 -116.68,1.84"/>
    </edge>
    <edge id="-E0.108" from="J17" to="J0" priority="-1">
        <lane id="-E0.108_0" index="0" speed="13.89" length="8.31" shape="-124.66,8.26 -132.97,8.27"/>
        <lane id="-E0.108_1" index="1" speed="13.89" length="8.31" shape="-124.67,5.06 -132.98,5.07"/>
        <lane id="-E0.108_2" index="2" speed="13.89" length="8.31" shape="-124.68,1.86 -132.98,1.87"/>
    </edge>
    <edge id="-E1" from="J2" to="J0" priority="-1">
        <lane id="-E1_0" index="0" speed="13.89" length="47.14" shape="-140.17,61.15 -141.64,14.03"/>
    </edge>
    <edge id="-E10" from="J10" to="J5" priority="-1">
        <lane id="-E10_0" index="0" speed="13.89" length="61.80" shape="-152.68,-148.78 -137.18,-88.96"/>
    </edge>
    <edge id="-E13" from="J3" to="J4" priority="-1">
        <lane id="-E13_0" index="0" speed="13.89" length="51.61" shape="-261.10,-11.19 -254.87,-62.42"/>
    </edge>
    <edge id="-E14" from="J12" to="J3" priority="-1">
        <lane id="-E14_0" index="0" speed="13.89" length="63.30" shape="-329.06,28.02 -271.00,2.80"/>
    </edge>
    <edge id="-E15" from="J13" to="J3" priority="-1">
        <lane id="-E15_0" index="0" speed="13.89" length="46.96" shape="-239.52,59.53 -258.72,16.67"/>
        <lane id="-E15_1" index="1" speed="13.89" length="46.96" shape="-236.60,58.22 -255.80,15.36"/>
    </edge>
    <edge id="-E2" from="J3" to="J15" priority="-1">
        <lane id="-E2_0" index="0" speed="13.89" length="65.19" shape="-249.03,-4.65 -183.84,-4.56"/>
        <lane id="-E2_1" index="1" speed="13.89" length="65.19" shape="-249.04,-1.45 -183.85,-1.36"/>
    </edge>
    <edge id="-E2.81" from="J15" to="J0" priority="-1">
        <lane id="-E2.81_0" index="0" speed="13.89" length="10.87" shape="-175.84,-7.75 -164.97,-7.74"/>
        <lane id="-E2.81_1" index="1" speed="13.89" length="10.87" shape="-175.84,-4.55 -164.98,-4.54"/>
        <lane id="-E2.81_2" index="2" speed="13.89" length="10.87" shape="-175.85,-1.35 -164.98,-1.34"/>
    </edge>
    <edge id="-E4" from="J0" to="J5" priority="-1">
        <lane id="-E4_0" index="0" speed="13.89" length="64.34" shape="-141.63,-10.31 -138.97,-74.60"/>
    </edge>
    <edge id="-E5" from="J6" to="J1" priority="-1">
        <lane id="-E5_0" index="0" speed="13.89" length="71.77" shape="-11.16,-82.17 -10.65,-10.40"/>
    </edge>
    <edge id="-E6" from="J7" to="J1" priority="-1">
        <lane id="-E6_0" index="0" speed="13.89" length="51.13" shape="-14.08,61.57 -13.83,10.44"/>
    </edge>
    <edge id="-E7" from="J5" to="J16" priority="-1">
        <lane id="-E7_0" index="0" speed="13.89" length="89.00" shape="-130.27,-84.15 -41.43,-89.43"/>
    </edge>
    <edge id="-E7.99" from="J16" to="J6" priority="-1">
        <lane id="-E7.99_0" index="0" speed="13.89" length="12.94" shape="-33.63,-93.10 -20.72,-93.87"/>
        <lane id="-E7.99_1" index="1" speed="13.89" length="12.94" shape="-33.44,-89.90 -20.53,-90.67"/>
    </edge>
    <edge id="-E8" from="J8" to="J6" priority="-1">
        <lane id="-E8_0" index="0" speed="13.89" length="58.36" shape="52.74,-88.94 -5.61,-88.04"/>
    </edge>
    <edge id="-E9" from="J9" to="J6" priority="-1">
        <lane id="-E9_0" index="0" speed="13.89" length="29.15" shape="-16.23,-129.19 -12.56,-100.28"/>
    </edge>
    <edge id="E0" from="J0" to="J1" priority="-1">
        <lane id="E0_0" index="0" speed="13.89" length="113.56" shape="-133.00,-4.53 -19.43,-4.76"/>
        <lane id="E0_1" index="1" speed="13.89" length="113.56" shape="-132.99,-1.33 -19.43,-1.56"/>
    </edge>
    <edge id="E1" from="J0" to="J2" priority="-1">
        <lane id="E1_0" index="0" speed="13.89" length="47.14" shape="-138.44,13.93 -136.97,61.05"/>
    </edge>
    <edge id="E10" from="J5" to="J10" priority="-1">
        <lane id="E10_0" index="0" speed="13.89" length="61.80" shape="-140.27,-88.16 -155.78,-147.98"/>
    </edge>
    <edge id="E11" from="J5" to="J4" priority="-1">
        <lane id="E11_0" index="0" speed="13.89" length="99.57" shape="-144.52,-79.93 -243.77,-71.95"/>
    </edge>
    <edge id="E12" from="J4" to="J11" priority="-1">
        <lane id="E12_0" index="0" speed="13.89" length="59.09" shape="-256.53,-76.10 -292.91,-122.65"/>
    </edge>
    <edge id="E13" from="J4" to="J3" priority="-1">
        <lane id="E13_0" index="0" speed="13.89" length="51.61" shape="-248.52,-61.65 -254.74,-10.41"/>
        <lane id="E13_1" index="1" speed="13.89" length="51.61" shape="-251.70,-62.03 -257.92,-10.80"/>
    </edge>
    <edge id="E14" from="J3" to="J12" priority="-1">
        <lane id="E14_0" index="0" speed="13.89" length="63.30" shape="-269.73,5.74 -327.78,30.96"/>
    </edge>
    <edge id="E15" from="J3" to="J13" priority="-1">
        <lane id="E15_0" index="0" speed="13.89" length="46.96" shape="-252.87,14.06 -233.68,56.92"/>
    </edge>
    <edge id="E2" from="J0" to="J14" priority="-1">
        <lane id="E2_0" index="0" speed="13.89" length="62.29" shape="-164.99,5.06 -227.28,4.98"/>
        <lane id="E2_1" index="1" speed="13.89" length="62.29" shape="-164.99,1.86 -227.27,1.78"/>
    </edge>
    <edge id="E2.90" from="J14" to="J3" priority="-1">
        <lane id="E2.90_0" index="0" speed="13.89" length="13.77" shape="-235.28,8.17 -249.05,8.16"/>
        <lane id="E2.90_1" index="1" speed="13.89" length="13.77" shape="-235.28,4.97 -249.04,4.96"/>
        <lane id="E2.90_2" index="2" speed="13.89" length="13.77" shape="-235.27,1.77 -249.04,1.76"/>
    </edge>
    <edge id="E3" from="J0" to="J4" priority="-1">
        <lane id="E3_0" index="0" speed="13.89" length="94.24" shape="-163.44,-12.87 -242.23,-64.57"/>
    </edge>
    <edge id="E4" from="J5" to="J0" priority="-1">
        <lane id="E4_0" index="0" speed="13.89" length="64.34" shape="-135.78,-74.47 -138.44,-10.18"/>
    </edge>
    <edge id="E5" from="J1" to="J6" priority="-1">
        <lane id="E5_0" index="0" speed="13.89" length="71.77" shape="-13.85,-10.37 -14.36,-82.15"/>
    </edge>
    <edge id="E6" from="J1" to="J7" priority="-1">
        <lane id="E6_0" index="0" speed="13.89" length="51.13" shape="-10.63,10.46 -10.88,61.59"/>
    </edge>
    <edge id="E7" from="J6" to="J5" priority="-1">
        <lane id="E7_0" index="0" speed="13.89" length="109.94" shape="-20.34,-87.48 -130.08,-80.95"/>
    </edge>
    <edge id="E8" from="J6" to="J8" priority="-1">
        <lane id="E8_0" index="0" speed="13.89" length="58.36" shape="-5.66,-91.24 52.70,-92.14"/>
    </edge>
    <edge id="E9" from="J6" to="J9" priority="-1">
        <lane id="E9_0" index="0" speed="13.89" length="29.15" shape="-15.74,-99.87 -19.41,-128.79"/>
    </edge>

    <tlLogic id="J0" type="static" programID="0" offset="0">
        <phase duration="37" state="rrrGGGggrrrrGGGGg"/>
        <phase duration="3"  state="rrryyyggrrrryyyyg"/>
        <phase duration="6"  state="rrrrrrGGrrrrrrrrG"/>
        <phase duration="3"  state="rrrrrryyrrrrrrrry"/>
        <phase duration="37" state="GGgrrrrrGGggrrrrr"/>
        <phase duration="3"  state="yyyrrrrryyyyrrrrr"/>
        <phase duration="1"  state="rrrrrrrrrrrrrrrrr"/>
    </tlLogic>
    <tlLogic id="J1" type="static" programID="0" offset="0">
        <phase duration="42" state="GgrrGG"/>
        <phase duration="3"  state="yyrrGy"/>
        <phase duration="42" state="rrGGGr"/>
        <phase duration="3"  state="rryyGr"/>
    </tlLogic>
    <tlLogic id="J3" type="static" programID="0" offset="0">
        <phase duration="33" state="rrrGGgrrrGGGg"/>
        <phase duration="3"  state="rrryygrrryyyg"/>
        <phase duration="6"  state="rrrrrGrrrrrrG"/>
        <phase duration="3"  state="rrrrryrrrrrry"/>
        <phase duration="33" state="GGgrrrGGgrrrr"/>
        <phase duration="3"  state="yygrrryygrrrr"/>
        <phase duration="6"  state="rrGrrrrrGrrrr"/>
        <phase duration="3"  state="rryrrrrryrrrr"/>
    </tlLogic>
    <tlLogic id="J4" type="static" programID="0" offset="0">
        <phase duration="27" state="GrGGr"/>
        <phase duration="3"  state="GrGyr"/>
        <phase duration="27" state="GrGrG"/>
        <phase duration="3"  state="Gryry"/>
        <phase duration="27" state="GGrrr"/>
        <phase duration="3"  state="Gyrrr"/>
    </tlLogic>
    <tlLogic id="J5" type="static" programID="0" offset="0">
        <phase duration="42" state="rrrGGgGGg"/>
        <phase duration="3"  state="rrrGyyyyy"/>
        <phase duration="42" state="GGGGrrrrr"/>
        <phase duration="3"  state="yyyGrrrrr"/>
    </tlLogic>
    <tlLogic id="J6" type="static" programID="0" offset="0">
        <phase duration="42" state="rrrGGgrrrGGg"/>
        <phase duration="3"  state="rrryyyrrryyy"/>
        <phase duration="42" state="GGgrrrGGgrrr"/>
        <phase duration="3"  state="yyyrrryyyrrr"/>
    </tlLogic>

    <junction id="J0" type="traffic_light" x="-140.47" y="0.29" incLanes="-E1_0 -E0.108_0 -E0.108_1 -E0.108_2 E4_0 -E2.81_0 -E2.81_1 -E2.81_2" intLanes=":J0_0_0 :J0_1_0 :J0_17_0 :J0_3_0 :J0_4_0 :J0_4_1 :J0_18_0 :J0_19_0 :J0_8_0 :J0_9_0 :J0_20_0 :J0_21_0 :J0_12_0 :J0_13_0 :J0_14_0 :J0_14_1 :J0_22_0" shape="-143.24,14.08 -136.84,13.88 -136.47,11.66 -135.94,10.88 -135.18,10.32 -134.19,9.99 -132.97,9.87 -133.00,-6.13 -135.21,-6.56 -135.96,-7.12 -136.48,-7.89 -136.78,-8.89 -136.84,-10.11 -143.23,-10.38 -144.13,-7.75 -146.34,-6.84 -149.58,-7.35 -153.55,-8.95 -157.97,-11.34 -162.56,-14.21 -164.32,-11.53 -164.97,-9.34 -164.99,6.66 -158.41,6.87 -153.01,7.50 -148.79,8.53 -145.76,9.97 -143.91,11.82">
        <request index="0"  response="00000000000110000" foes="00000000000110000" cont="0"/>
        <request index="1"  response="11110000011110000" foes="11110110011110000" cont="0"/>
        <request index="2"  response="11100001011110000" foes="11100001011110000" cont="1"/>
        <request index="3"  response="00000000000000000" foes="10000001000000000" cont="0"/>
        <request index="4"  response="00000000000000100" foes="10000011000000111" cont="0"/>
        <request index="5"  response="00000010000000100" foes="10000011000000111" cont="0"/>
        <request index="6"  response="01111110000000100" foes="01111111000000110" cont="1"/>
        <request index="7"  response="01110110000000100" foes="01110111000000110" cont="1"/>
        <request index="8"  response="01100000000000000" foes="01100000000000000" cont="0"/>
        <request index="9"  response="11100000011111000" foes="11100000011111100" cont="0"/>
        <request index="10" response="11100000011110010" foes="11100000011110010" cont="1"/>
        <request index="11" response="00011000011000010" foes="00011000011000010" cont="1"/>
        <request index="12" response="00000100000000000" foes="00000100001000000" cont="0"/>
        <request index="13" response="00000100000000000" foes="00000100011000010" cont="0"/>
        <request index="14" response="00000010000000000" foes="00000011111000110" cont="0"/>
        <request index="15" response="00000010000000100" foes="00000011111000110" cont="0"/>
        <request index="16" response="00000010000111100" foes="00000011000111110" cont="1"/>
    </junction>
    <junction id="J1" type="traffic_light" x="-12.18" y="0.03" incLanes="-E5_0 E0_0 E0_1 -E6_0" intLanes=":J1_0_0 :J1_6_0 :J1_2_0 :J1_3_0 :J1_4_0 :J1_5_0" shape="-9.05,-10.41 -15.45,-10.36 -15.88,-8.14 -16.44,-7.36 -17.21,-6.80 -18.21,-6.47 -19.44,-6.36 -19.41,6.44 -17.19,6.88 -16.42,7.44 -15.86,8.22 -15.54,9.21 -15.43,10.44 -9.03,10.47">
        <request index="0" response="000000" foes="001000" cont="0"/>
        <request index="1" response="100000" foes="101000" cont="1"/>
        <request index="2" response="100000" foes="100000" cont="0"/>
        <request index="3" response="100011" foes="100011" cont="0"/>
        <request index="4" response="000000" foes="000000" cont="0"/>
        <request index="5" response="000000" foes="001110" cont="0"/>
    </junction>
    <junction id="J10" type="dead_end" x="-154.23" y="-148.38" incLanes="E10_0" intLanes="" shape="-154.23,-148.38 -157.33,-147.58 -154.23,-148.38"/>
    <junction id="J11" type="dead_end" x="-291.65" y="-123.64" incLanes="E12_0" intLanes="" shape="-294.17,-121.67 -291.65,-123.64"/>
    <junction id="J12" type="dead_end" x="-328.42" y="29.49" incLanes="E14_0" intLanes="" shape="-328.42,29.49 -327.14,32.43 -328.42,29.49"/>
    <junction id="J13" type="dead_end" x="-235.14" y="57.57" incLanes="E15_0" intLanes="" shape="-235.14,57.57 -232.22,56.26 -235.14,57.57"/>