<routes>
  <vType id="car" vClass="passenger" sigma="0.5" acceleration="2.6" deceleration="4.5" maxSpeed="15.0" />
  <trip id="veh_3636" type="car" depart="0.93" from="-E9" to="E1" />
  <trip id="veh_2498" type="car" depart="1.04" from="-E6" to="E10" />
  <trip id="veh_2595" type="car" depart="2.12" from="-E10" to="E10" />
  <trip id="veh_959" type="car" depart="2.23" from="-E1" to="E1" />
  <trip id="veh_16" type="car" depart="2.77" from="-E8" to="E1" />
  <trip id="veh_4250" type="car" depart="6.32" from="-E10" to="E1" />
  <trip id="veh_1061" type="car" depart="7.44" from="-E6" to="E10" />
  <trip id="veh_2072" type="car" depart="8.72" from="-E15" to="E9" />
  <trip id="veh_1228" type="car" depart="9.95" from="-E6" to="E1" />
  <trip id="veh_4874" type="car" depart="12.23" from="-E9" to="E14" />
  <trip id="veh_231" type="car" depart="12.29" from="-E10" to="E10" />
  <trip id="veh_1461" type="car" depart="14.21" from="-E6" to="E1" />
  <trip id="veh_985" type="car" depart="15.00" from="-E15" to="E1" />
  <trip id="veh_1219" type="car" depart="15.48" from="-E10" to="E1" />
  <trip id="veh_1451" type="car" depart="16.69" from="-E1" to="E15" />
  <trip id="veh_4325" type="car" depart="18.55" from="-E9" to="E1" />
  <trip id="veh_1920" type="car" depart="18.72" from="-E6" to="E9" />
  <trip id="veh_4431" type="car" depart="18.86" from="-E9" to="E12" />
  <trip id="veh_2717" type="car" depart="19.71" from="-E1" to="E10" />
  <trip id="veh_4403" type="car" depart="19.87" from="-E14" to="E10" />
  <trip id="veh_3461" type="car" depart="21.00" from="-E14" to="E1" />
  <trip id="veh_2941" type="car" depart="22.05" from="-E10" to="E9" />
  <trip id="veh_334" type="car" depart="22.24" from="-E14" to="E10" />
  <trip id="veh_1561" type="car" depart="23.28" from="-E9" to="E1" />
  <trip id="veh_678" type="car" depart="25.00" from="-E10" to="E1" />
  <trip id="veh_1028" type="car" depart="25.34" from="-E1" to="E10" />
  <trip id="veh_3688" type="car" depart="25.70" from="-E8" to="E1" />
  <trip id="veh_4011" type="car" depart="26.98" from="-E14" to="E8" />
  <trip id="veh_1067" type="car" depart="27.21" from="-E6" to="E6" />
  <trip id="veh_491" type="car" depart="27.29" from="-E1" to="E1" />
  <trip id="veh_4791" type="car" depart="27.84" from="-E10" to="E10" />
  <trip id="veh_3728" type="car" depart="28.88" from="-E1" to="E15" />
  <trip id="veh_1199" type="car" depart="29.69" from="-E14" to="E1" />
  <trip id="veh_2557" type="car" depart="29.86" from="-E14" to="E1" />
  <trip id="veh_9" type="car" depart="30.50" from="-E14" to="E1" />
  <trip id="veh_744" type="car" depart="31.53" from="-E10" to="E6" />
  <trip id="veh_1006" type="car" depart="31.94" from="-E6" to="E10" />
  <trip id="veh_2709" type="car" depart="31.98" from="-E14" to="E10" />
  <trip id="veh_4232" type="car" depart="32.07" from="-E8" to="E1" />
  <trip id="veh_1536" type="car" depart="32.57" from="-E15" to="E1" />
  <trip id="veh_1829" type="car" depart="32.80" from="-E15" to="E1" />
  <trip id="veh_3929" type="car" depart="33.14" from="-E10" to="E1" />
  <trip id="veh_1295" type="car" depart="33.51" from="-E9" to="E1" />
  <trip id="veh_324" type="car" depart="34.33" from="-E6" to="E10" />
  <trip id="veh_2372" type="car" depart="36.91" from="-E1" to="E1" />
  <trip id="veh_4027" type="car" depart="39.19" from="-E9" to="E1" />
  <trip id="veh_4855" type="car" depart="39.29" from="-E10" to="E1" />
  <trip id="veh_3962" type="car" depart="40.47" from="-E15" to="E15" />
  <trip id="veh_918" type="car" depart="41.49" from="-E9" to="E1" />
  <trip id="veh_2439" type="car" depart="42.09" from="-E6" to="E10" />
  <trip id="veh_1673" type="car" depart="43.49" from="-E9" to="E8" />
  <trip id="veh_850" type="car" depart="44.91" from="-E9" to="E10" />
  <trip id="veh_2962" type="car" depart="44.97" from="-E1" to="E1" />
  <trip id="veh_3081" type="car" depart="45.57" from="-E10" to="E10" />
  <trip id="veh_2006" type="car" depart="45.60" from="-E10" to="E1" />
  <trip id="veh_489" type="car" depart="45.63" from="-E14" to="E9" />
  <trip id="veh_2380" type="car" depart="47.89" from="-E10" to="E1" />
  <trip id="veh_4643" type="car" depart="48.25" from="-E6" to="E1" />
  <trip id="veh_3567" type="car" depart="48.61" from="-E1" to="E1" />
  <trip id="veh_332" type="car" depart="48.77" from="-E1" to="E1" />
  <trip id="veh_370" type="car" depart="48.94" from="-E1" to="E10" />
  <trip id="veh_1242" type="car" depart="49.44" from="-E1" to="E14" />
  <trip id="veh_4797" type="car" depart="49.50" from="-E1" to="E1" />
  <trip id="veh_312" type="car" depart="50.00" from="-E15" to="E8" />
  <trip id="veh_2720" type="car" depart="50.09" from="-E8" to="E10" />
  <trip id="veh_4514" type="car" depart="50.69" from="-E10" to="E10" />
  <trip id="veh_1269" type="car" depart="50.84" from="-E10" to="E1" />
  <trip id="veh_3280" type="car" depart="51.23" from="-E8" to="E10" />
  <trip id="veh_4169" type="car" depart="53.00" from="-E1" to="E8" />
  <trip id="veh_1779" type="car" depart="53.64" from="-E6" to="E9" />
  <trip id="veh_1417" type="car" depart="54.47" from="-E10" to="E6" />
  <trip id="veh_3223" type="car" depart="54.89" from="-E6" to="E10" />
  <trip id="veh_3514" type="car" depart="56.07" from="-E6" to="E8" />
  <trip id="veh_2395" type="car" depart="57.88" from="-E6" to="E10" />
  <trip id="veh_1030" type="car" depart="58.05" from="-E15" to="E12" />
  <trip id="veh_1560" type="car" depart="58.54" from="-E15" to="E1" />
  <trip id="veh_203" type="car" depart="59.74" from="-E15" to="E1" />
  <trip id="veh_3870" type="car" depart="59.81" from="-E15" to="E10" />
  <trip id="veh_126" type="car" depart="59.81" from="-E9" to="E10" />
  <trip id="veh_304" type="car" depart="61.34" from="-E1" to="E10" />
  <trip id="veh_925" type="car" depart="61.82" from="-E15" to="E1" />
  <trip id="veh_2062" type="car" depart="62.40" from="-E10" to="E10" />
  <trip id="veh_4695" type="car" depart="62.80" from="-E10" to="E9" />
  <trip id="veh_4322" type="car" depart="64.17" from="-E10" to="E10" />
  <trip id="veh_1727" type="car" depart="64.67" from="-E1" to="E1" />
  <trip id="veh_1791" type="car" depart="65.94" from="-E15" to="E10" />
  <trip id="veh_2209" type="car" depart="67.17" from="-E15" to="E1" />
  <trip id="veh_1203" type="car" depart="67.83" from="-E14" to="E10" />
  <trip id="veh_4210" type="car" depart="67.90" from="-E14" to="E12" />
  <trip id="veh_2058" type="car" depart="69.43" from="-E15" to="E1" />
  <trip id="veh_4161" type="car" depart="70.04" from="-E1" to="E10" />
  <trip id="veh_1776" type="car" depart="71.23" from="-E1" to="E10" />
  <trip id="veh_687" type="car" depart="71.75" from="-E14" to="E1" />
  <trip id="veh_4207" type="car" depart="71.99" from="-E14" to="E1" />
  <trip id="veh_3764" type="car" depart="72.17" from="-E6" to="E1" />
  <trip id="veh_1407" type="car" depart="72.55" from="-E14" to="E9" />
  <trip id="veh_536" type="car" depart="73.63" from="-E6" to="E10" />
  <trip id="veh_3413" type="car" depart="74.33" from="-E15" to="E1" />
  <trip id="veh_2537" type="car" depart="74.54" from="-E15" to="E10" />
  <trip id="veh_1376" type="car" depart="75.06" from="-E10" to="E10" />
  <trip id="veh_3939" type="car" depart="75.11" from="-E9" to="E10" />
  <trip id="veh_2943" type="car" depart="75.31" from="-E8" to="E1" />
  <trip id="veh_3818" type="car" depart="76.75" from="-E14" to="E10" />
  <trip id="veh_2017" type="car" depart="77.71" from="-E9" to="E1" />
  <trip id="veh_4656" type="car" depart="78.18" from="-E8" to="E10" />
  <trip id="veh_3090" type="car" depart="78.36" from="-E1" to="E8" />
  <trip id="veh_2842" type="car" depart="79.13" from="-E8" to="E1" />
  <trip id="veh_3896" type="car" depart="80.65" from="-E15" to="E8" />
  <trip id="veh_151" type="car" depart="81.20" from="-E10" to="E10" />
  <trip id="veh_996" type="car" depart="81.32" from="-E14" to="E1" />
  <trip id="veh_3259" type="car" depart="81.38" from="-E15" to="E10" />
  <trip id="veh_1050" type="car" depart="81.61" from="-E1" to="E14" />
  <trip id="veh_160" type="car" depart="82.27" from="-E1" to="E10" />
  <trip id="veh_2050" type="car" depart="83.63" from="-E1" to="E1" />
  <trip id="veh_934" type="car" depart="84.04" from="-E1" to="E1" />
  <trip id="veh_2786" type="car" depart="85.05" from="-E15" to="E15" />
  <trip id="veh_1565" type="car" depart="85.11" from="-E10" to="E1" />
  <trip id="veh_2517" type="car" depart="85.52" from="-E8" to="E10" />
  <trip id="veh_3814" type="car" depart="85.61" from="-E14" to="E1" />
  <trip id="veh_2830" type="car" depart="86.26" from="-E15" to="E1" />
  <trip id="veh_2641" type="car" depart="87.97" from="-E9" to="E10" />
  <trip id="veh_919" type="car" depart="88.83" from="-E15" to="E10" />
  <trip id="veh_3181" type="car" depart="89.73" from="-E10" to="E1" />
  <trip id="veh_4391" type="car" depart="90.83" from="-E8" to="E1" />
  <trip id="veh_2657" type="car" depart="90.99" from="-E1" to="E1" />
  <trip id="veh_2960" type="car" depart="91.49" from="-E10" to="E1" />
  <trip id="veh_3187" type="car" depart="91.85" from="-E1" to="E1" />
  <trip id="veh_2214" type="car" depart="93.17" from="-E15" to="E8" />
  <trip id="veh_11" type="car" depart="93.54" from="-E15" to="E10" />
  <trip id="veh_4753" type="car" depart="96.55" from="-E9" to="E10" />
  <trip id="veh_976" type="car" depart="96.67" from="-E6" to="E1" />
  <trip id="veh_3437" type="car" depart="96.78" from="-E9" to="E14" />
  <trip id="veh_1609" type="car" depart="97.84" from="-E8" to="E10" />
  <trip id="veh_2381" type="car" depart="98.18" from="-E15" to="E1" />
  <trip id="veh_730" type="car" depart="98.28" from="-E1" to="E15" />
  <trip id="veh_643" type="car" depart="99.73" from="-E14" to="E1" />
  <trip id="veh_4630" type="car" depart="99.93" from="-E8" to="E12" />
  <trip id="veh_2599" type="car" depart="100.37" from="-E8" to="E1" />
  <trip id="veh_3419" type="car" depart="100.61" from="-E14" to="E1" />
  <trip id="veh_458" type="car" depart="100.94" from="-E10" to="E10" />
  <trip id="veh_4147" type="car" depart="101.75" from="-E14" to="E10" />
  <trip id="veh_20" type="car" depart="101.88" from="-E1" to="E10" />
  <trip id="veh_1855" type="car" depart="101.92" from="-E15" to="E12" />
  <trip id="veh_67" type="car" depart="102.60" from="-E10" to="E10" />
  <trip id="veh_1467" type="car" depart="103.01" from="-E8" to="E14" />
  <trip id="veh_1513" type="car" depart="103.38" from="-E6" to="E1" />
  <trip id="veh_3373" type="car" depart="103.79" from="-E15" to="E10" />
  <trip id="veh_3059" type="car" depart="103.79" from="-E14" to="E1" />
  <trip id="veh_2511" type="car" depart="104.22" from="-E8" to="E6" />
  <trip id="veh_3702" type="car" depart="105.28" from="-E9" to="E1" />
  <trip id="veh_787" type="car" depart="107.57" from="-E9" to="E1" />
  <trip id="veh_3758" type="car" depart="109.56" from="-E8" to="E1" />
  <trip id="veh_4342" type="car" depart="110.47" from="-E14" to="E10" />
  <trip id="veh_1794" type="car" depart="110.64" from="-E9" to="E1" />
  <trip id="veh_1320" type="car" depart="110.85" from="-E8" to="E1" />
  <trip id="veh_3708" type="car" depart="110.87" from="-E14" to="E9" />
  <trip id="veh_4062" type="car" depart="111.47" from="-E10" to="E1" />
  <trip id="veh_674" type="car" depart="112.24" from="-E8" to="E10" />
  <trip id="veh_280" type="car" depart="113.03" from="-E10" to="E1" />
  <trip id="veh_4515" type="car" depart="113.29" from="-E8" to="E1" />
  <trip id="veh_2740" type="car" depart="113.84" from="-E14" to="E1" />
  <trip id="veh_695" type="car" depart="114.36" from="-E6" to="E10" />
  <trip id="veh_3132" type="car" depart="116.82" from="-E15" to="E10" />
  <trip id="veh_4497" type="car" depart="117.12" from="-E10" to="E1" />
  <trip id="veh_2460" type="car" depart="117.44" from="-E15" to="E9" />
  <trip id="veh_3739" type="car" depart="117.59" from="-E8" to="E10" />
  <trip id="veh_971" type="car" depart="119.59" from="-E9" to="E10" />
  <trip id="veh_4560" type="car" depart="120.19" from="-E9" to="E10" />
  <trip id="veh_438" type="car" depart="120.37" from="-E14" to="E1" />
  <trip id="veh_588" type="car" depart="121.12" from="-E14" to="E1" />
  <trip id="veh_4887" type="car" depart="122.03" from="-E9" to="E8" />
  <trip id="veh_3351" type="car" depart="122.45" from="-E8" to="E10" />
  <trip id="veh_3329" type="car" depart="123.00" from="-E1" to="E10" />
  <trip id="veh_2675" type="car" depart="124.69" from="-E10" to="E1" />
  <trip id="veh_1848" type="car" depart="125.00" from="-E15" to="E9" />
  <trip id="veh_1506" type="car" depart="125.22" from="-E6" to="E10" />
  <trip id="veh_537" type="car" depart="125.42" from="-E15" to="E15" />
  <trip id="veh_4046" type="car" depart="125.72" from="-E6" to="E10" />
  <trip id="veh_1987" type="car" depart="128.07" from="-E9" to="E15" />
  <trip id="veh_4189" type="car" depart="130.04" from="-E10" to="E10" />
  <trip id="veh_1133" type="car" depart="130.67" from="-E10" to="E10" />
  <trip id="veh_2122" type="car" depart="131.80" from="-E8" to="E9" />
  <trip id="veh_1478" type="car" depart="131.87" from="-E10" to="E1" />
  <trip id="veh_1112" type="car" depart="131.93" from="-E6" to="E1" />
  <trip id="veh_1103" type="car" depart="134.24" from="-E14" to="E12" />
  <trip id="veh_7" type="car" depart="134.72" from="-E6" to="E1" />
  <trip id="veh_2678" type="car" depart="135.14" from="-E1" to="E1" />
  <trip id="veh_3632" type="car" depart="135.76" from="-E9" to="E1" />
  <trip id="veh_298" type="car" depart="136.78" from="-E14" to="E10" />
  <trip id="veh_4759" type="car" depart="137.23" from="-E14" to="E1" />
  <trip id="veh_3464" type="car" depart="137.83" from="-E10" to="E6" />
  <trip id="veh_2978" type="car" depart="138.91" from="-E9" to="E8" />
  <trip id="veh_4963" type="car" depart="139.23" from="-E1" to="E1" />
  <trip id="veh_4937" type="car" depart="139.84" from="-E10" to="E10" />
  <trip id="veh_2778" type="car" depart="140.38" from="-E10" to="E1" />
  <trip id="veh_2604" type="car" depart="141.66" from="-E6" to="E10" />
  <trip id="veh_1299" type="car" depart="141.96" from="-E8" to="E10" />
  <trip id="veh_4300" type="car" depart="142.31" from="-E15" to="E1" />
  <trip id="veh_2872" type="car" depart="142.72" from="-E1" to="E1" />
  <trip id="veh_4386" type="car" depart="144.00" from="-E1" to="E6" />
  <trip id="veh_4085" type="car" depart="146.02" from="-E10" to="E12" />
  <trip id="veh_55" type="car" depart="146.30" from="-E8" to="E10" />
  <trip id="veh_3270" type="car" depart="146.34" from="-E9" to="E6" />
  <trip id="veh_4877" type="car" depart="147.20" from="-E10" to="E1" />
  <trip id="veh_4711" type="car" depart="148.91" from="-E1" to="E10" />
  <trip id="veh_763" type="car" depart="149.03" from="-E10" to="E1" />
  <trip id="veh_2762" type="car" depart="149.08" from="-E10" to="E10" />
  <trip id="veh_836" type="car" depart="149.54" from="-E1" to="E15" />
  <trip id="veh_4063" type="car" depart="150.27" from="-E10" to="E6" />
  <trip id="veh_778" type="car" depart="150.54" from="-E1" to="E10" />
  <trip id="veh_4815" type="car" depart="150.63" from="-E9" to="E12" />
  <trip id="veh_1121" type="car" depart="151.84" from="-E15" to="E9" />
  <trip id="veh_1949" type="car" depart="151.94" from="-E14" to="E1" />
  <trip id="veh_125" type="car" depart="152.33" from="-E9" to="E1" />
  <trip id="veh_856" type="car" depart="153.30" from="-E14" to="E10" />
  <trip id="veh_4137" type="car" depart="154.68" from="-E9" to="E10" />
  <trip id="veh_1672" type="car" depart="155.42" from="-E9" to="E15" />
  <trip id="veh_2383" type="car" depart="157.72" from="-E1" to="E10" />
  <trip id="veh_2575" type="car" depart="158.69" from="-E14" to="E1" />
  <trip id="veh_4271" type="car" depart="159.07" from="-E10" to="E6" />
  <trip id="veh_4519" type="car" depart="159.08" from="-E9" to="E1" />
  <trip id="veh_3497" type="car" depart="159.56" from="-E15" to="E1" />
  <trip id="veh_2242" type="car" depart="159.85" from="-E14" to="E10" />
  <trip id="veh_3149" type="car" depart="160.79" from="-E1" to="E1" />
  <trip id="veh_4385" type="car" depart="161.92" from="-E15" to="E8" />
  <trip id="veh_146" type="car" depart="161.97" from="-E8" to="E14" />
  <trip id="veh_3536" type="car" depart="162.38" from="-E15" to="E1" />
  <trip id="veh_362" type="car" depart="162.53" from="-E6" to="E10" />
  <trip id="veh_4231" type="car" depart="162.54" from="-E1" to="E8" />
  <trip id="veh_1462" type="car" depart="163.34" from="-E1" to="E14" />
  <trip id="veh_604" type="car" depart="163.65" from="-E9" to="E10" />
  <trip id="veh_1960" type="car" depart="163.95" from="-E1" to="E1" />
  <trip id="veh_4418" type="car" depart="165.24" from="-E15" to="E15" />
  <trip id="veh_4400" type="car" depart="165.47" from="-E8" to="E1" />
  <trip id="veh_4291" type="car" depart="165.65" from="-E15" to="E6" />
  <trip id="veh_2926" type="car" depart="166.02" from="-E14" to="E12" />
  <trip id="veh_2901" type="car" depart="166.18" from="-E9" to="E1" />
  <trip id="veh_1019" type="car" depart="166.52" from="-E9" to="E1" />
  <trip id="veh_3269" type="car" depart="168.02" from="-E9" to="E10" />
  <trip id="veh_2219" type="car" depart="168.23" from="-E10" to="E12" />
  <trip id="veh_1209" type="car" depart="168.64" from="-E15" to="E10" />
  <trip id="veh_4668" type="car" depart="170.44" from="-E1" to="E10" />
  <trip id="veh_4266" type="car" depart="170.68" from="-E15" to="E10" />
  <trip id="veh_2010" type="car" depart="170.80" from="-E14" to="E1" />
  <trip id="veh_2437" type="car" depart="171.33" from="-E9" to="E1" />
  <trip id="veh_2009" type="car" depart="173.42" from="-E9" to="E10" />
  <trip id="veh_3733" type="car" depart="173.44" from="-E10" to="E1" />
  <trip id="veh_2387" type="car" depart="173.50" from="-E1" to="E10" />
  <trip id="veh_1292" type="car" depart="173.76" from="-E1" to="E8" />
  <trip id="veh_158" type="car" depart="174.86" from="-E14" to="E10" />
  <trip id="veh_2422" type="car" depart="175.90" from="-E6" to="E1" />
  <trip id="veh_4803" type="car" depart="176.14" from="-E15" to="E1" />
  <trip id="veh_243" type="car" depart="176.59" from="-E15" to="E10" />
  <trip id="veh_4316" type="car" depart="176.91" from="-E6" to="E1" />
  <trip id="veh_2608" type="car" depart="178.69" from="-E15" to="E1" />
  <trip id="veh_1563" type="car" depart="178.87" from="-E15" to="E1" />
  <trip id="veh_3365" type="car" depart="179.48" from="-E15" to="E10" />
  <trip id="veh_3156" type="car" depart="181.04" from="-E14" to="E10" />
  <trip id="veh_3987" type="car" depart="181.62" from="-E1" to="E9" />
  <trip id="veh_3706" type="car" depart="181.62" from="-E15" to="E1" />
  <trip id="veh_1099" type="car" depart="182.44" from="-E10" to="E10" />
  <trip id="veh_2861" type="car" depart="182.80" from="-E14" to="E1" />
  <trip id="veh_4218" type="car" depart="182.82" from="-E6" to="E1" />
  <trip id="veh_2846" type="car" depart="183.79" from="-E15" to="E10" />
  <trip id="veh_4036" type="car" depart="183.82" from="-E10" to="E1" />
  <trip id="veh_2611" type="car" depart="184.75" from="-E1" to="E10" />
  <trip id="veh_1380" type="car" depart="185.65" from="-E1" to="E1" />
  <trip id="veh_4849" type="car" depart="185.79" from="-E9" to="E10" />
  <trip id="veh_2176" type="car" depart="187.35" from="-E14" to="E10" />
  <trip id="veh_4052" type="car" depart="187.52" from="-E6" to="E10" />
  <trip id="veh_3164" type="car" depart="187.82" from="-E15" to="E10" />
  <trip id="veh_3872" type="car" depart="188.51" from="-E9" to="E1" />
  <trip id="veh_1145" type="car" depart="191.42" from="-E15" to="E1" />
  <trip id="veh_3027" type="car" depart="192.94" from="-E1" to="E1" />
  <trip id="veh_891" type="car" depart="194.19" from="-E8" to="E10" />
  <trip id="veh_823" type="car" depart="195.35" from="-E1" to="E10" />
  <trip id="veh_3685" type="car" depart="196.52" from="-E14" to="E1" />
  <trip id="veh_4048" type="car" depart="196.58" from="-E9" to="E1" />
  <trip id="veh_442" type="car" depart="197.21" from="-E8" to="E1" />
  <trip id="veh_3073" type="car" depart="199.48" from="-E8" to="E8" />
  <trip id="veh_2069" type="car" depart="199.73" from="-E10" to="E10" />
  <trip id="veh_2788" type="car" depart="200.44" from="-E9" to="E1" />
  <trip id="veh_284" type="car" depart="201.32" from="-E9" to="E8" />
  <trip id="veh_2012" type="car" depart="201.93" from="-E8" to="E8" />
  <trip id="veh_989" type="car" depart="201.97" from="-E8" to="E14" />
  <trip id="veh_2385" type="car" depart="202.46" from="-E1" to="E10" />
  <trip id="veh_308" type="car" depart="203.14" from="-E6" to="E8" />
  <trip id="veh_1716" type="car" depart="203.31" from="-E9" to="E1" />
  <trip id="veh_4354" type="car" depart="203.33" from="-E8" to="E1" />
  <trip id="veh_2145" type="car" depart="204.15" from="-E14" to="E10" />
  <trip id="veh_1346" type="car" depart="204.28" from="-E1" to="E1" />
  <trip id="veh_798" type="car" depart="205.05" from="-E1" to="E15" />
  <trip id="veh_4642" type="car" depart="207.37" from="-E8" to="E6" />
  <trip id="veh_4024" type="car" depart="207.41" from="-E15" to="E1" />
  <trip id="veh_3960" type="car" depart="207.87" from="-E15" to="E10" />
  <trip id="veh_2999" type="car" depart="207.96" from="-E8" to="E1" />
  <trip id="veh_4282" type="car" depart="208.22" from="-E14" to="E1" />
  <trip id="veh_4307" type="car" depart="208.84" from="-E9" to="E12" />
  <trip id="veh_2250" type="car" depart="209.13" from="-E14" to="E1" />
  <trip id="veh_246" type="car" depart="211.08" from="-E15" to="E14" />
  <trip id="veh_483" type="car" depart="212.91" from="-E6" to="E1" />
  <trip id="veh_1134" type="car" depart="213.17" from="-E10" to="E10" />
  <trip id="veh_549" type="car" depart="213.23" from="-E8" to="E1" />
  <trip id="veh_129" type="car" depart="213.29" from="-E10" to="E10" />
  <trip id="veh_3477" type="car" depart="215.08" from="-E6" to="E10" />
  <trip id="veh_4732" type="car" depart="215.90" from="-E15" to="E8" />
  <trip id="veh_663" type="car" depart="216.25" from="-E10" to="E1" />
  <trip id="veh_3981" type="car" depart="216.71" from="-E1" to="E8" />
  <trip id="veh_4620" type="car" depart="217.11" from="-E14" to="E6" />
  <trip id="veh_3412" type="car" depart="218.92" from="-E14" to="E1" />
  <trip id="veh_4194" type="car" depart="224.15" from="-E9" to="E12" />
  <trip id="veh_3205" type="car" depart="224.62" from="-E8" to="E10" />
  <trip id="veh_950" type="car" depart="224.78" from="-E15" to="E9" />
  <trip id="veh_4121" type="car" depart="224.97" from="-E9" to="E10" />
  <trip id="veh_685" type="car" depart="225.16" from="-E8" to="E10" />
  <trip id="veh_633" type="car" depart="227.13" from="-E9" to="E12" />
  <trip id="veh_1047" type="car" depart="227.80" from="-E1" to="E10" />
  <trip id="veh_2542" type="car" depart="228.04" from="-E15" to="E1" />
  <trip id="veh_1267" type="car" depart="228.27" from="-E10" to="E15" />
  <trip id="veh_3709" type="car" depart="229.92" from="-E10" to="E1" />
  <trip id="veh_3912" type="car" depart="230.06" from="-E6" to="E1" />
  <trip id="veh_523" type="car" depart="230.98" from="-E8" to="E15" />
  <trip id="veh_4985" type="car" depart="231.28" from="-E6" to="E1" />
  <trip id="veh_2375" type="car" depart="233.20" from="-E15" to="E6" />
  <trip id="veh_2328" type="car" depart="236.59" from="-E1" to="E12" />
  <trip id="veh_1910" type="car" depart="238.02" from="-E15" to="E10" />
  <trip id="veh_2519" type="car" depart="238.34" from="-E10" to="E15" />
  <trip id="veh_1123" type="car" depart="238.60" from="-E15" to="E10" />
  <trip id="veh_4573" type="car" depart="238.67" from="-E10" to="E1" />
  <trip id="veh_1435" type="car" depart="239.09" from="-E15" to="E1" />
  <trip id="veh_3305" type="car" depart="240.55" from="-E8" to="E15" />
  <trip id="veh_4319" type="car" depart="240.71" from="-E1" to="E10" />
  <trip id="veh_1850" type="car" depart="240.71" from="-E14" to="E15" />
  <trip id="veh_2576" type="car" depart="241.09" from="-E14" to="E10" />
  <trip id="veh_1657" type="car" depart="242.90" from="-E6" to="E1" />
  <trip id="veh_3118" type="car" depart="243.53" from="-E14" to="E10" />
  <trip id="veh_21" type="car" depart="244.14" from="-E15" to="E14" />
  <trip id="veh_4935" type="car" depart="244.45" from="-E10" to="E10" />
  <trip id="veh_4091" type="car" depart="245.74" from="-E1" to="E10" />
  <trip id="veh_2419" type="car" depart="246.62" from="-E10" to="E10" />
  <trip id="veh_3794" type="car" depart="246.86" from="-E8" to="E10" />
  <trip id="veh_3795" type="car" depart="247.34" from="-E14" to="E1" />
  <trip id="veh_4028" type="car" depart="247.48" from="-E10" to="E10" />
  <trip id="veh_1937" type="car" depart="249.44" from="-E6" to="E10" />
  <trip id="veh_1494" type="car" depart="251.10" from="-E10" to="E10" />
  <trip id="veh_1792" type="car" depart="253.08" from="-E14" to="E1" />
  <trip id="veh_4273" type="car" depart="254.45" from="-E9" to="E10" />
  <trip id="veh_4041" type="car" depart="254.79" from="-E15" to="E12" />
  <trip id="veh_3445" type="car" depart="255.25" from="-E1" to="E1" />
  <trip id="veh_4" type="car" depart="255.51" from="-E8" to="E12" />
  <trip id="veh_4422" type="car" depart="257.76" from="-E15" to="E1" />
  <trip id="veh_2257" type="car" depart="258.76" from="-E6" to="E1" />
  <trip id="veh_3339" type="car" depart="259.87" from="-E10" to="E10" />
  <trip id="veh_4304" type="car" depart="259.88" from="-E1" to="E9" />
  <trip id="veh_477" type="car" depart="260.41" from="-E14" to="E1" />
  <trip id="veh_3486" type="car" depart="261.46" from="-E15" to="E1" />
  <trip id="veh_2443" type="car" depart="261.65" from="-E6" to="E1" />
  <trip id="veh_3045" type="car" depart="263.00" from="-E1" to="E10" />
  <trip id="veh_1768" type="car" depart="263.52" from="-E9" to="E1" />
  <trip id="veh_4561" type="car" depart="264.79" from="-E14" to="E1" />
  <trip id="veh_2859" type="car" depart="264.99" from="-E15" to="E10" />
  <trip id="veh_2039" type="car" depart="265.29" from="-E9" to="E10" />
  <trip id="veh_3850" type="car" depart="265.49" from="-E1" to="E10" />
  <trip id="veh_1279" type="car" depart="267.36" from="-E10" to="E1" />
  <trip id="veh_1941" type="car" depart="267.88" from="-E15" to="E9" />
  <trip id="veh_1742" type="car" depart="269.05" from="-E1" to="E1" />
  <trip id="veh_3921" type="car" depart="269.63" from="-E6" to="E1" />
  <trip id="veh_4661" type="car" depart="270.26" from="-E1" to="E1" />
  <trip id="veh_4882" type="car" depart="270.89" from="-E6" to="E10" />
  <trip id="veh_3226" type="car" depart="271.34" from="-E9" to="E1" />
  <trip id="veh_421" type="car" depart="271.63" from="-E9" to="E1" />
  <trip id="veh_434" type="car" depart="272.58" from="-E1" to="E9" />
  <trip id="veh_3293" type="car" depart="273.34" from="-E14" to="E1" />
  <trip id="veh_1590" type="car" depart="273.44" from="-E9" to="E10" />
  <trip id="veh_2302" type="car" depart="273.68" from="-E14" to="E9" />
  <trip id="veh_402" type="car" depart="274.17" from="-E9" to="E10" />
  <trip id="veh_2826" type="car" depart="274.77" from="-E10" to="E10" />
  <trip id="veh_4452" type="car" depart="276.90" from="-E15" to="E10" />
  <trip id="veh_4115" type="car" depart="277.10" from="-E10" to="E8" />
  <trip id="veh_4031" type="car" depart="277.46" from="-E9" to="E8" />
  <trip id="veh_2803" type="car" depart="277.59" from="-E10" to="E10" />
  <trip id="veh_782" type="car" depart="277.78" from="-E9" to="E8" />
  <trip id="veh_645" type="car" depart="278.05" from="-E1" to="E12" />
  <trip id="veh_2118" type="car" depart="279.16" from="-E6" to="E10" />
  <trip id="veh_4195" type="car" depart="279.23" from="-E14" to="E10" />
  <trip id="veh_4646" type="car" depart="279.39" from="-E15" to="E10" />
  <trip id="veh_4583" type="car" depart="280.43" from="-E9" to="E1" />
  <trip id="veh_4884" type="car" depart="281.45" from="-E1" to="E1" />
  <trip id="veh_3046" type="car" depart="281.79" from="-E15" to="E1" />
  <trip id="veh_1252" type="car" depart="282.23" from="-E1" to="E1" />
  <trip id="veh_4350" type="car" depart="282.26" from="-E1" to="E10" />
  <trip id="veh_4680" type="car" depart="282.47" from="-E8" to="E1" />
  <trip id="veh_2613" type="car" depart="282.77" from="-E10" to="E10" />
  <trip id="veh_3400" type="car" depart="287.26" from="-E10" to="E15" />
  <trip id="veh_2568" type="car" depart="287.43" from="-E6" to="E10" />
  <trip id="veh_742" type="car" depart="288.02" from="-E9" to="E14" />
  <trip id="veh_3178" type="car" depart="288.21" from="-E6" to="E6" />
  <trip id="veh_4018" type="car" depart="288.92" from="-E8" to="E10" />
  <trip id="veh_2656" type="car" depart="289.39" from="-E15" to="E1" />
  <trip id="veh_108" type="car" depart="289.64" from="-E9" to="E10" />
  <trip id="veh_33" type="car" depart="289.71" from="-E10" to="E8" />
  <trip id="veh_818" type="car" depart="290.17" from="-E9" to="E8" />
  <trip id="veh_2191" type="car" depart="290.56" from="-E1" to="E14" />
  <trip id="veh_4432" type="car" depart="290.99" from="-E15" to="E10" />
  <trip id="veh_1025" type="car" depart="291.20" from="-E6" to="E1" />
  <trip id="veh_1731" type="car" depart="291.72" from="-E10" to="E1" />
  <trip id="veh_3670" type="car" depart="292.86" from="-E14" to="E1" />
  <trip id="veh_474" type="car" depart="293.93" from="-E14" to="E10" />
  <trip id="veh_1588" type="car" depart="297.30" from="-E14" to="E1" />
  <trip id="veh_852" type="car" depart="298.09" from="-E14" to="E10" />
  <trip id="veh_300" type="car" depart="298.32" from="-E15" to="E1" />
  <trip id="veh_4023" type="car" depart="299.34" from="-E8" to="E10" />
  <trip id="veh_35" type="car" depart="300.01" from="-E14" to="E10" />
  <trip id="veh_2286" type="car" depart="300.62" from="-E10" to="E10" />
  <trip id="veh_4448" type="car" depart="301.34" from="-E15" to="E1" />
  <trip id="veh_4224" type="car" depart="301.98" from="-E1" to="E8" />
  <trip id="veh_145" type="car" depart="303.30" from="-E14" to="E10" />
  <trip id="veh_1846" type="car" depart="304.86" from="-E9" to="E10" />