<?xml version="1.0" encoding="UTF-8"?>

<!-- generated on 2026-06-13T16:47:50.042711+01:00 by Eclipse SUMO duarouter 1.26.0
<duarouterConfiguration xmlns:xsi="http://www.w3.org/2001/XMLSchema-instance" xsi:noNamespaceSchemaLocation="http://sumo.dlr.de/xsd/duarouterConfiguration.xsd">

    <input>
        <net-file value="C:\Users\rondo\Desktop\Sys auto projeekt\src\City_map_2\city2.net.xml"/>
        <route-files value="C:\Users\rondo\AppData\Local\Temp\city2_hard_train_1.trips.xml"/>
    </input>

    <output>
        <output-file value="C:\Users\rondo\Desktop\Sys auto projeekt\src\City_map_2\city2_hard_train_1.rou.xml"/>
    </output>

    <report>
        <no-warnings value="true"/>
        <ignore-errors value="true"/>
    </report>

    <random_number>
        <seed value="1001"/>
    </random_number>

</duarouterConfiguration>
-->

<routes xmlns:xsi="http://www.w3.org/2001/XMLSchema-instance" xsi:noNamespaceSchemaLocation="http://sumo.dlr.de/xsd/routes_file.xsd">
    <vehicle id="veh229" depart="2.72">
        <route edges="-E10 -E7 E6"/>
    </vehicle>
    <vehicle id="veh1871" depart="63.28">
        <route edges="-E10 -E7 E6"/>
    </vehicle>
    <vehicle id="veh1367" depart="69.33">
        <route edges="-E2 E3 E14"/>
    </vehicle>
    <vehicle id="veh1363" depart="77.86">
        <route edges="-E9 E11 E13"/>
    </vehicle>
    <vehicle id="veh1488" depart="99.58">
        <route edges="-E4 E0 E5 -E1 E4"/>
    </vehicle>
    <vehicle id="veh817" depart="110.85">
        <route edges="-E13 -E11 E10"/>
    </vehicle>
    <vehicle id="veh543" depart="130.20">
        <route edges="-E4 E0 E7 E11 E13"/>
    </vehicle>
    <vehicle id="veh1429" depart="139.98">
        <route edges="-E10 E11 -E12 -E8 E7 E10"/>
    </vehicle>
    <vehicle id="veh645" depart="154.02">
        <route edges="-E9 -E7 E6"/>
    </vehicle>
    <vehicle id="veh890" depart="156.21">
        <route edges="-E2 -E1 E0 E5 E2"/>
    </vehicle>
    <vehicle id="veh51" depart="167.83">
        <route edges="-E13 -E12 -E8 E7 E11 E13"/>
    </vehicle>
    <vehicle id="veh1903" depart="171.21">
        <route edges="-E13 -E12 -E8 E6"/>
    </vehicle>
    <vehicle id="veh1052" depart="176.08">
        <route edges="-E10 E11 -E12 -E8 E7 E10"/>
    </vehicle>
    <vehicle id="veh1462" depart="178.79">
        <route edges="-E13 -E12 -E8 E7 E11 E13"/>
    </vehicle>
    <vehicle id="veh1463" depart="189.06">
        <route edges="-E6 E7 E10"/>
    </vehicle>
    <vehicle id="veh1437" depart="190.59">
        <route edges="-E2 E3 E12 -E11 E9"/>
    </vehicle>
    <vehicle id="veh694" depart="199.38">
        <route edges="-E4 E0 E7 E10"/>
    </vehicle>
    <vehicle id="veh810" depart="202.24">
        <route edges="-E6 E5 E2"/>
    </vehicle>
    <vehicle id="veh1531" depart="205.29">
        <route edges="-E4 E0 E7 E10"/>
    </vehicle>
    <vehicle id="veh48" depart="208.87">
        <route edges="-E4 E0 E5 -E1 E4"/>
    </vehicle>
    <vehicle id="veh309" depart="219.68">
        <route edges="-E9 E11 E13"/>
    </vehicle>
    <vehicle id="veh40" depart="223.47">
        <route edges="-E14 -E8 E6"/>
    </vehicle>
    <vehicle id="veh585" depart="230.80">
        <route edges="-E14 -E8 E6"/>
    </vehicle>
    <vehicle id="veh1403" depart="231.56">
        <route edges="-E13 -E12 -E8 E7 E11 E13"/>
    </vehicle>
    <vehicle id="veh21" depart="232.14">
        <route edges="-E9 -E7 E6"/>
    </vehicle>
    <vehicle id="veh170" depart="245.65">
        <route edges="-E14 -E8 E7 E10"/>
    </vehicle>
    <vehicle id="veh866" depart="245.71">
        <route edges="-E2 E3 E14"/>
    </vehicle>
    <vehicle id="veh1721" depart="247.96">
        <route edges="-E13 -E11 E9"/>
    </vehicle>
    <vehicle id="veh1919" depart="249.22">
        <route edges="-E4 E0 E7 E10"/>
    </vehicle>
    <vehicle id="veh887" depart="254.50">
        <route edges="-E2 E3 E12 -E11 E9"/>
    </vehicle>
    <vehicle id="veh790" depart="257.34">
        <route edges="-E14 E12 E13"/>
    </vehicle>
    <vehicle id="veh1702" depart="258.06">
        <route edges="-E2 E3 -E8 E6"/>
    </vehicle>
    <vehicle id="veh194" depart="261.68">
        <route edges="-E13 -E12 -E8 E7 E11 E13"/>
    </vehicle>
    <vehicle id="veh664" depart="265.34">
        <route edges="-E4 E0 E8 E14"/>
    </vehicle>
    <vehicle id="veh1870" depart="279.45">
        <route edges="-E4 E0 E7 E10"/>
    </vehicle>
    <vehicle id="veh1269" depart="282.28">
        <route edges="-E9 -E7 E6"/>
    </vehicle>
    <vehicle id="veh1800" depart="283.03">
        <route edges="-E10 E11 E13"/>
    </vehicle>
    <vehicle id="veh723" depart="285.68">
        <route edges="-E6 E5 E2"/>
    </vehicle>
    <vehicle id="veh978" depart="288.79">
        <route edges="-E10 -E7 E6"/>
    </vehicle>
    <vehicle id="veh374" depart="294.04">
        <route edges="-E14 E12 E13"/>
    </vehicle>
    <vehicle id="veh505" depart="300.25">
        <route edges="-E4 E0 E6"/>
    </vehicle>
    <vehicle id="veh1551" depart="304.96">
        <route edges="-E4 E0 E7 E10"/>
    </vehicle>
    <vehicle id="veh1" depart="306.80">
        <route edges="-E10 E11 -E12 -E8 E7 E10"/>
    </vehicle>
    <vehicle id="veh1331" depart="310.30">
        <route edges="-E14 E12 E13"/>
    </vehicle>
    <vehicle id="veh1837" depart="316.52">
        <route edges="-E13 -E12 -E8 E6"/>
    </vehicle>
    <vehicle id="veh990" depart="321.63">
        <route edges="-E14 E12 E13"/>
    </vehicle>
    <vehicle id="veh809" depart="330.50">
        <route edges="-E9 E10"/>
    </vehicle>
    <vehicle id="veh1035" depart="341.55">
        <route edges="-E9 -E7 E6"/>
    </vehicle>
    <vehicle id="veh1009" depart="346.16">
        <route edges="-E13 -E11 E10"/>
    </vehicle>
    <vehicle id="veh1803" depart="348.84">
        <route edges="-E4 E0 E7 E11 E13"/>
    </vehicle>
    <vehicle id="veh1619" depart="356.04">
        <route edges="-E10 -E7 E6"/>
    </vehicle>
    <vehicle id="veh1726" depart="367.05">
        <route edges="-E9 E10"/>
    </vehicle>
    <vehicle id="veh409" depart="369.45">
        <route edges="-E10 E11 -E12 -E8 E7 E10"/>
    </vehicle>
    <vehicle id="veh336" depart="374.28">
        <route edges="-E14 -E8 E7 E10"/>
    </vehicle>
    <vehicle id="veh1561" depart="375.50">
        <route edges="-E2 E3 E12 E13"/>
    </vehicle>
    <vehicle id="veh1342" depart="387.71">
        <route edges="-E10 E11 -E12 -E8 E7 E10"/>
    </vehicle>
    <vehicle id="veh687" depart="391.29">
        <route edges="-E4 E0 E7 E11 E13"/>
    </vehicle>
    <vehicle id="veh1049" depart="393.17">
        <route edges="-E2 -E1 E0 E5 E2"/>
    </vehicle>
    <vehicle id="veh598" depart="393.83">
        <route edges="-E6 E8 E12 E13"/>
    </vehicle>
    <vehicle id="veh448" depart="396.25">
        <route edges="-E9 -E7 E5 E2"/>
    </vehicle>
    <vehicle id="veh1542" depart="396.60">
        <route edges="-E4 E0 E6"/>
    </vehicle>
    <vehicle id="veh672" depart="399.44">
        <route edges="-E4 E0 E7 E11 E13"/>
    </vehicle>
    <vehicle id="veh1193" depart="419.23">
        <route edges="-E14 -E8 E6"/>
    </vehicle>
    <vehicle id="veh869" depart="424.68">
        <route edges="-E10 E11 -E12 -E8 E7 E10"/>
    </vehicle>
    <vehicle id="veh1618" depart="425.80">
        <route edges="-E9 -E7 E6"/>
    </vehicle>
    <vehicle id="veh191" depart="427.16">
        <route edges="-E2 -E1 E0 E7 E10"/>
    </vehicle>
    <vehicle id="veh548" depart="429.44">
        <route edges="-E14 -E8 E7 E10"/>
    </vehicle>
    <vehicle id="veh944" depart="430.17">
        <route edges="-E10 -E7 E8 E14"/>
    </vehicle>
    <vehicle id="veh1798" depart="430.78">
        <route edges="-E6 E7 E10"/>
    </vehicle>
    <vehicle id="veh196" depart="432.02">
        <route edges="-E14 -E8 E7 E10"/>
    </vehicle>
    <vehicle id="veh591" depart="435.04">
        <route edges="-E6 E8 E12 E13"/>
    </vehicle>
    <vehicle id="veh1661" depart="435.53">
        <route edges="-E2 E3 -E8 E6"/>
    </vehicle>
    <vehicle id="veh1898" depart="436.43">
        <route edges="-E4 E1 E2"/>
    </vehicle>
    <vehicle id="veh283" depart="437.77">
        <route edges="-E14 -E8 E7 E10"/>
    </vehicle>
    <vehicle id="veh320" depart="437.92">
        <route edges="-E4 E0 E7 E10"/>
    </vehicle>
    <vehicle id="veh1010" depart="440.62">
        <route edges="-E9 -E7 E6"/>
    </vehicle>
    <vehicle id="veh1596" depart="442.98">
        <route edges="-E10 E11 E13"/>
    </vehicle>
    <vehicle id="veh1559" depart="447.59">
        <route edges="-E9 E11 E13"/>
    </vehicle>
    <vehicle id="veh1222" depart="449.02">
        <route edges="-E14 -E8 E5 E3 E14"/>
    </vehicle>
    <vehicle id="veh1499" depart="449.43">
        <route edges="-E2 E3 -E8 E6"/>
    </vehicle>
    <vehicle id="veh29" depart="456.57">
        <route edges="-E14 -E8 E7 E10"/>
    </vehicle>
    <vehicle id="veh1910" depart="457.36">
        <route edges="-E14 E12 E13"/>
    </vehicle>
    <vehicle id="veh1773" depart="457.56">
        <route edges="-E13 -E12 -E8 E6"/>
    </vehicle>
    <vehicle id="veh1435" depart="466.23">
        <route edges="-E6 E7 E10"/>
    </vehicle>
    <vehicle id="veh846" depart="468.61">
        <route edges="-E6 E7 E10"/>
    </vehicle>
    <vehicle id="veh1649" depart="474.63">
        <route edges="-E6 E5 -E1 E0 E6"/>
    </vehicle>
    <vehicle id="veh10" depart="475.30">
        <route edges="-E2 E3 -E8 E6"/>
    </vehicle>
    <vehicle id="veh1217" depart="478.15">
        <route edges="-E6 E7 E9"/>
    </vehicle>
    <vehicle id="veh1447" depart="486.06">
        <route edges="-E6 E7 E10"/>
    </vehicle>
    <vehicle id="veh1664" depart="492.12">
        <route edges="-E13 -E11 E9"/>
    </vehicle>
    <vehicle id="veh1807" depart="495.69">
        <route edges="-E6 E5 -E1 E0 E6"/>
    </vehicle>
    <vehicle id="veh366" depart="495.81">
        <route edges="-E10 -E7 -E0 E4"/>
    </vehicle>
    <vehicle id="veh301" depart="501.28">
        <route edges="-E2 -E1 E0 E7 E10"/>
    </vehicle>
    <vehicle id="veh622" depart="506.48">
        <route edges="-E2 E3 E12 E13"/>
    </vehicle>
    <vehicle id="veh953" depart="517.11">
        <route edges="-E4 E0 E7 E11 E13"/>
    </vehicle>
    <vehicle id="veh1677" depart="519.92">
        <route edges="-E14 E12 E13"/>
    </vehicle>
    <vehicle id="veh1655" depart="523.67">
        <route edges="-E4 E0 E7 E9"/>
    </vehicle>
    <vehicle id="veh745" depart="525.77">
        <route edges="-E4 E0 E7 E11 E13"/>
    </vehicle>
    <vehicle id="veh1122" depart="527.49">
        <route edges="-E10 E11 E13"/>
    </vehicle>
    <vehicle id="veh1635" depart="528.28">
        <route edges="-E4 E0 E6"/>
    </vehicle>
    <vehicle id="veh1133" depart="530.13">
        <route edges="-E10 -E7 E6"/>
    </vehicle>
    <vehicle id="veh1165" depart="531.84">
        <route edges="-E6 E5 -E1 E0 E6"/>
    </vehicle>
    <vehicle id="veh1716" depart="532.64">
        <route edges="-E10 -E7 E6"/>
    </vehicle>
    <vehicle id="veh1079" depart="533.03">
        <route edges="-E13 -E12 -E8 E7 E11 E13"/>
    </vehicle>
    <vehicle id="veh1824" depart="543.22">
        <route edges="-E2 E3 E12 E13"/>
    </vehicle>
    <vehicle id="veh1206" depart="544.73">
        <route edges="-E2 E3 E12 -E11 E9"/>
    </vehicle>
    <vehicle id="veh18" depart="548.84">
        <route edges="-E13 -E11 E10"/>
    </vehicle>
    <vehicle id="veh611" depart="551.00">
        <route edges="-E2 -E1 E0 E5 E2"/>
    </vehicle>
    <vehicle id="veh267" depart="555.24">
        <route edges="-E4 E0 E7 E11 E13"/>
    </vehicle>
    <vehicle id="veh755" depart="560.61">
        <route edges="-E13 -E12 -E8 E7 E11 E13"/>
    </vehicle>
    <vehicle id="veh5" depart="561.02">
        <route edges="-E2 E3 E12 E13"/>
    </vehicle>
    <vehicle id="veh1153" depart="568.60">
        <route edges="-E14 -E8 E6"/>
    </vehicle>
    <vehicle id="veh1956" depart="572.14">
        <route edges="-E13 -E12 -E8 E7 E11 E13"/>
    </vehicle>
    <vehicle id="veh382" depart="573.46">
        <route edges="-E10 E11 -E12 -E8 E7 E10"/>
    </vehicle>
    <vehicle id="veh43" depart="577.12">
        <route edges="-E6 E7 E10"/>
    </vehicle>
    <vehicle id="veh1615" depart="577.14">
        <route edges="-E13 -E12 -E8 E7 E11 E13"/>
    </vehicle>
    <vehicle id="veh1809" depart="579.08">
        <route edges="-E4 E0 E7 E10"/>
    </vehicle>
    <vehicle id="veh140" depart="580.28">
        <route edges="-E6 E7 E10"/>
    </vehicle>
    <vehicle id="veh620" depart="581.25">
        <route edges="-E14 -E8 E6"/>
    </vehicle>
    <vehicle id="veh96" depart="582.55">
        <route edges="-E2 E3 -E8 E6"/>
    </vehicle>
    <vehicle id="veh165" depart="584.94">
        <route edges="-E13 -E12 -E8 E6"/>
    </vehicle>
    <vehicle id="veh1820" depart="585.19">
        <route edges="-E13 -E12 -E8 E7 E11 E13"/>
    </vehicle>
    <vehicle id="veh1475" depart="585.47">
        <route edges="-E2 E3 -E8 E6"/>
    </vehicle>
    <vehicle id="veh245" depart="597.72">
        <route edges="-E10 E11 E13"/>
    </vehicle>
    <vehicle id="veh992" depart="600.05">
        <route edges="-E2 E3 E14"/>
    </vehicle>
    <vehicle id="veh1640" depart="604.31">
        <route edges="-E13 -E11 E10"/>
    </vehicle>
    <vehicle id="veh647" depart="608.56">
        <route edges="-E14 -E8 E7 E10"/>
    </vehicle>
    <vehicle id="veh1261" depart="609.53">
        <route edges="-E2 -E1 E0 E7 E10"/>
    </vehicle>
    <vehicle id="veh400" depart="611.73">
        <route edges="-E9 E10"/>
    </vehicle>
    <vehicle id="veh476" depart="614.31">
        <route edges="-E6 E8 E12 E13"/>
    </vehicle>
    <vehicle id="veh1496" depart="614.86">
        <route edges="-E2 E3 E12 E13"/>
    </vehicle>
    <vehicle id="veh1695" depart="620.89">
        <route edges="-E9 E11 E13"/>
    </vehicle>
    <vehicle id="veh947" depart="622.50">
        <route edges="-E10 E11 E13"/>
    </vehicle>
    <vehicle id="veh1925" depart="624.00">
        <route edges="-E2 -E1 E0 E7 E10"/>
    </vehicle>
    <vehicle id="veh1588" depart="629.42">
        <route edges="-E6 E7 E10"/>
    </vehicle>
    <vehicle id="veh1514" depart="632.21">
        <route edges="-E2 E3 E12 E13"/>
    </vehicle>
    <vehicle id="veh1400" depart="633.94">
        <route edges="-E4 E0 E6"/>
    </vehicle>
    <vehicle id="veh967" depart="637.35">
        <route edges="-E10 -E7 E5 E2"/>
    </vehicle>
    <vehicle id="veh300" depart="642.00">
        <route edges="-E2 -E1 E0 E7 E10"/>
    </vehicle>
    <vehicle id="veh1410" depart="643.71">
        <route edges="-E10 -E7 E6"/>
    </vehicle>
    <vehicle id="veh1602" depart="645.19">
        <route edges="-E13 -E12 -E8 E6"/>
    </vehicle>
    <vehicle id="veh1554" depart="645.35">
        <route edges="-E10 E11 -E12 -E8 E7 E10"/>
    </vehicle>
    <vehicle id="veh1362" depart="645.67">
        <route edges="-E13 -E11 E10"/>
    </vehicle>
    <vehicle id="veh266" depart="646.33">
        <route edges="-E10 -E7 E6"/>
    </vehicle>
    <vehicle id="veh118" depart="647.32">
        <route edges="-E13 -E11 E10"/>
    </vehicle>
    <vehicle id="veh1536" depart="648.38">
        <route edges="-E14 -E8 E5 E3 E14"/>
    </vehicle>
    <vehicle id="veh361" depart="650.99">
        <route edges="-E14 -E8 E7 E10"/>
    </vehicle>
    <vehicle id="veh173" depart="653.33">
        <route edges="-E14 -E8 E7 E10"/>
    </vehicle>
    <vehicle id="veh1426" depart="656.26">
        <route edges="-E10 -E7 E6"/>
    </vehicle>
    <vehicle id="veh1187" depart="656.74">
        <route edges="-E4 E0 E7 E10"/>
    </vehicle>
    <vehicle id="veh396" depart="661.06">
        <route edges="-E6 E7 E10"/>
    </vehicle>
    <vehicle id="veh1364" depart="661.44">
        <route edges="-E2 E3 -E8 E6"/>
    </vehicle>
    <vehicle id="veh1713" depart="663.94">
        <route edges="-E13 -E12 E14"/>
    </vehicle>
    <vehicle id="veh75" depart="666.96">
        <route edges="-E2 E3 E12 E13"/>
    </vehicle>
    <vehicle id="veh600" depart="669.45">
        <route edges="-E10 E11 E13"/>
    </vehicle>
    <vehicle id="veh384" depart="674.27">
        <route edges="-E9 -E7 E6"/>
    </vehicle>
    <vehicle id="veh1359" depart="677.03">
        <route edges="-E6 E8 E12 E13"/>
    </vehicle>
    <vehicle id="veh711" depart="677.73">
        <route edges="-E10 E11 -E12 -E8 E7 E10"/>
    </vehicle>
    <vehicle id="veh371" depart="679.71">
        <route edges="-E6 E8 E12 E13"/>
    </vehicle>
    <vehicle id="veh1091" depart="683.03">
        <route edges="-E4 E0 E7 E10"/>
    </vehicle>
    <vehicle id="veh1341" depart="685.26">
        <route edges="-E9 E11 E13"/>
    </vehicle>
    <vehicle id="veh87" depart="685.49">
        <route edges="-E9 E10"/>
    </vehicle>
    <vehicle id="veh352" depart="686.35">
        <route edges="-E13 -E11 E10"/>
    </vehicle>
    <vehicle id="veh593" depart="688.05">
        <route edges="-E4 E0 E7 E10"/>
    </vehicle>
    <vehicle id="veh1078" depart="689.79">
        <route edges="-E2 E3 E12 -E11 E9"/>
    </vehicle>
    <vehicle id="veh1759" depart="690.10">
        <route edges="-E6 E8 E14"/>
    </vehicle>
    <vehicle id="veh860" depart="691.09">
        <route edges="-E14 E12 E13"/>
    </vehicle>
    <vehicle id="veh743" depart="692.46">
        <route edges="-E13 -E11 E10"/>
    </vehicle>
    <vehicle id="veh1662" depart="693.13">
        <route edges="-E2 -E1 E0 E7 E10"/>
    </vehicle>
    <vehicle id="veh1997" depart="696.78">
        <route edges="-E4 E0 E7 E10"/>
    </vehicle>
    <vehicle id="veh1924" depart="702.23">
        <route edges="-E14 -E8 E7 E10"/>
    </vehicle>
    <vehicle id="veh1257" depart="704.79">
        <route edges="-E14 -E8 E6"/>
    </vehicle>
    <vehicle id="veh940" depart="707.98">
        <route edges="-E4 E1 E2"/>
    </vehicle>
    <vehicle id="veh1808" depart="708.46">
        <route edges="-E6 E5 -E1 E0 E6"/>
    </vehicle>
    <vehicle id="veh1231" depart="709.82">
        <route edges="-E6 E5 -E1 E0 E6"/>
    </vehicle>
    <vehicle id="veh1601" depart="711.31">
        <route edges="-E10 E11 -E12 -E8 E7 E10"/>
    </vehicle>
    <vehicle id="veh1330" depart="712.64">
        <route edges="-E4 E0 E6"/>
    </vehicle>
    <vehicle id="veh587" depart="714.04">
        <route edges="-E9 -E7 E6"/>
    </vehicle>
    <vehicle id="veh599" depart="717.29">
        <route edges="-E9 E11 E13"/>
    </vehicle>
    <vehicle id="veh1560" depart="718.37">
        <route edges="-E6 E8 E12 E13"/>
    </vehicle>
    <vehicle id="veh98" depart="718.85">
        <route edges="-E10 -E7 E6"/>
    </vehicle>
    <vehicle id="veh1047" depart="724.38">
        <route edges="-E14 -E8 E6"/>
    </vehicle>
    <vehicle id="veh84" depart="725.74">
        <route edges="-E6 E5 -E1 E0 E6"/>
    </vehicle>
    <vehicle id="veh1926" depart="727.38">
        <route edges="-E9 -E7 E5 E2"/>
    </vehicle>
    <vehicle id="veh32" depart="727.54">
        <route edges="-E13 -E11 E10"/>
    </vehicle>
    <vehicle id="veh395" depart="728.61">
        <route edges="-E9 -E7 E6"/>
    </vehicle>
    <vehicle id="veh256" depart="730.17">
        <route edges="-E10 E11 E13"/>
    </vehicle>
    <vehicle id="veh1880" depart="736.17">
        <route edges="-E6 E5 -E1 E0 E6"/>
    </vehicle>
    <vehicle id="veh1382" depart="736.79">
        <route edges="-E6 E7 E10"/>
    </vehicle>
    <vehicle id="veh607" depart="738.10">
        <route edges="-E6 E5 E2"/>
    </vehicle>
    <vehicle id="veh1507" depart="740.22">
        <route edges="-E6 -E0 E4"/>
    </vehicle>
    <vehicle id="veh1092" depart="740.40">
        <route edges="-E10 E11 E13"/>
    </vehicle>
    <vehicle id="veh1179" depart="741.22">
        <route edges="-E2 E3 -E8 E6"/>
    </vehicle>
    <vehicle id="veh1535" depart="742.13">
        <route edges="-E13 -E11 E10"/>
    </vehicle>
    <vehicle id="veh212" depart="743.23">
        <route edges="-E10 -E7 E6"/>
    </vehicle>
    <vehicle id="veh1465" depart="744.01">
        <route edges="-E13 -E11 E10"/>
    </vehicle>
    <vehicle id="veh281" depart="744.18">
        <route edges="-E2 E3 -E8 E6"/>
    </vehicle>
    <vehicle id="veh1202" depart="745.46">
        <route edges="-E6 E5 -E1 E0 E6"/>
    </vehicle>
    <vehicle id="veh401" depart="747.21">
        <route edges="-E14 E12 E13"/>
    </vehicle>
    <vehicle id="veh1409" depart="748.30">
        <route edges="-E2 E3 -E8 E6"/>
    </vehicle>
    <vehicle id="veh1196" depart="749.49">
        <route edges="-E6 E5 -E1 E0 E6"/>
    </vehicle>
    <vehicle id="veh784" depart="749.63">
        <route edges="-E4 E0 E6"/>
    </vehicle>
    <vehicle id="veh1154" depart="754.46">
        <route edges="-E2 E3 -E8 E6"/>
    </vehicle>
    <vehicle id="veh1998" depart="756.76">
        <route edges="-E14 -E8 E6"/>
    </vehicle>
    <vehicle id="veh536" depart="758.88">
        <route edges="-E6 E8 E12 E13"/>
    </vehicle>
    <vehicle id="veh1072" depart="759.52">
        <route edges="-E2 -E1 E0 E7 E10"/>
    </vehicle>
    <vehicle id="veh749" depart="759.97">
        <route edges="-E4 E0 E7 E10"/>
    </vehicle>
    <vehicle id="veh1494" depart="759.99">
        <route edges="-E6 E5 -E1 E0 E6"/>
    </vehicle>
    <vehicle id="veh1404" depart="762.18">
        <route edges="-E6 E8 E12 E13"/>
    </vehicle>
    <vehicle id="veh1581" depart="767.90">
        <route edges="-E2 E3 E12 E13"/>
    </vehicle>
    <vehicle id="veh1951" depart="768.79">
        <route edges="-E6 E5 -E1 E0 E6"/>
    </vehicle>
    <vehicle id="veh958" depart="770.12">
        <route edges="-E6 E7 E10"/>
    </vehicle>
    <vehicle id="veh1390" depart="771.35">
        <route edges="-E13 -E12 -E8 E6"/>
    </vehicle>
    <vehicle id="veh1200" depart="771.90">
        <route edges="-E6 E5 -E1 E0 E6"/>
    </vehicle>
    <vehicle id="veh615" depart="772.59">
        <route edges="-E13 -E12 -E8 E6"/>
    </vehicle>
    <vehicle id="veh1470" depart="773.44">
        <route edges="-E14 E12 E13"/>
    </vehicle>
    <vehicle id="veh111" depart="773.85">
        <route edges="-E6 E8 E12 E13"/>
    </vehicle>
    <vehicle id="veh1946" depart="775.04">
        <route edges="-E14 E12 E13"/>
    </vehicle>
    <vehicle id="veh776" depart="775.29">
        <route edges="-E9 -E7 -E0 E4"/>
    </vehicle>
    <vehicle id="veh601" depart="776.37">
        <route edges="-E2 E3 -E8 E6"/>
    </vehicle>
    <vehicle id="veh882" depart="776.40">
        <route edges="-E4 E0 E6"/>
    </vehicle>
    <vehicle id="veh678" depart="779.93">
        <route edges="-E9 E10"/>
    </vehicle>
    <vehicle id="veh1743" depart="780.91">
        <route edges="-E9 E11 -E12 -E8 E7 E9"/>
    </vehicle>
    <vehicle id="veh1832" depart="782.31">
        <route edges="-E13 -E11 E10"/>
    </vehicle>
    <vehicle id="veh916" depart="786.33">
        <route edges="-E6 E8 E12 E13"/>
    </vehicle>
    <vehicle id="veh187" depart="791.96">
        <route edges="-E9 E11 E13"/>
    </vehicle>
    <vehicle id="veh581" depart="792.31">
        <route edges="-E14 -E8 E7 E10"/>
    </vehicle>
    <vehicle id="veh1599" depart="795.21">
        <route edges="-E9 E10"/>
    </vehicle>
    <vehicle id="veh886" depart="796.04">
        <route edges="-E9 -E7 E6"/>
    </vehicle>
    <vehicle id="veh1705" depart="797.31">
        <route edges="-E4 E0 E7 E11 E13"/>
    </vehicle>
    <vehicle id="veh883" depart="802.10">
        <route edges="-E13 -E12 -E8 E7 E11 E13"/>
    </vehicle>
    <vehicle id="veh646" depart="804.93">
        <route edges="-E9 E11 E13"/>
    </vehicle>
    <vehicle id="veh1489" depart="806.34">
        <route edges="-E14 E12 E13"/>
    </vehicle>
    <vehicle id="veh1468" depart="807.86">
        <route edges="-E4 E0 E6"/>
    </vehicle>
    <vehicle id="veh1813" depart="808.08">
        <route edges="-E4 E0 E7 E11 E13"/>
    </vehicle>
    <vehicle id="veh1865" depart="809.97">
        <route edges="-E6 E7 E10"/>
    </vehicle>
    <vehicle id="veh1246" depart="812.56">
        <route edges="-E14 -E8 E7 E10"/>
    </vehicle>
    <vehicle id="veh125" depart="812.82">
        <route edges="-E2 E3 -E8 E6"/>
    </vehicle>
    <vehicle id="veh796" depart="813.02">
        <route edges="-E14 -E8 E7 E10"/>
    </vehicle>
    <vehicle id="veh1242" depart="815.35">
        <route edges="-E4 E0 E6"/>
    </vehicle>
    <vehicle id="veh45" depart="817.56">
        <route edges="-E13 -E12 -E8 E6"/>
    </vehicle>
    <vehicle id="veh1474" depart="818.50">
        <route edges="-E10 E11 E13"/>
    </vehicle>
    <vehicle id="veh17" depart="819.86">
        <route edges="-E13 -E12 -E8 E6"/>
    </vehicle>
    <vehicle id="veh23" depart="820.29">
        <route edges="-E9 E10"/>
    </vehicle>
    <vehicle id="veh981" depart="820.58">
        <route edges="-E14 E12 E13"/>
    </vehicle>
    <vehicle id="veh863" depart="822.29">
        <route edges="-E10 E11 E13"/>
    </vehicle>
    <vehicle id="veh1377" depart="823.64">
        <route edges="-E4 E0 E6"/>
    </vehicle>
    <vehicle id="veh493" depart="824.15">
        <route edges="-E9 -E7 E6"/>
    </vehicle>
    <vehicle id="veh1984" depart="824.76">
        <route edges="-E4 E0 E7 E11 E13"/>
    </vehicle>
    <vehicle id="veh754" depart="825.18">
        <route edges="-E10 E11 -E12 -E8 E7 E10"/>
    </vehicle>
    <vehicle id="veh930" depart="825.60">
        <route edges="-E13 -E11 E10"/>
    </vehicle>
    <vehicle id="veh1150" depart="828.47">
        <route edges="-E4 E0 E7 E10"/>
    </vehicle>
    <vehicle id="veh24" depart="829.70">
        <route edges="-E10 E11 -E12 -E8 E7 E10"/>
    </vehicle>
    <vehicle id="veh630" depart="831.17">
        <route edges="-E13 -E11 E10"/>
    </vehicle>
    <vehicle id="veh1459" depart="833.85">
        <route edges="-E13 -E12 -E8 E6"/>
    </vehicle>
    <vehicle id="veh402" depart="835.72">
        <route edges="-E4 E0 E7 E10"/>
    </vehicle>
    <vehicle id="veh1451" depart="838.47">
        <route edges="-E2 E3 -E8 E6"/>
    </vehicle>
    <vehicle id="veh310" depart="838.73">
        <route edges="-E10 E11 -E12 -E8 E7 E10"/>
    </vehicle>
    <vehicle id="veh151" depart="839.54">
        <route edges="-E10 E11 E13"/>
    </vehicle>
    <vehicle id="veh1902" depart="844.32">
        <route edges="-E13 -E12 -E8 E6"/>
    </vehicle>
    <vehicle id="veh530" depart="845.45">
        <route edges="-E4 E0 E5 -E1 E4"/>
    </vehicle>
    <vehicle id="veh205" depart="845.46">
        <route edges="-E10 E11 -E12 -E8 E7 E10"/>
    </vehicle>
    <vehicle id="veh764" depart="845.91">
        <route edges="-E9 E10"/>
    </vehicle>
    <vehicle id="veh226" depart="848.48">
        <route edges="-E13 -E12 -E8 E7 E11 E13"/>
    </vehicle>
    <vehicle id="veh741" depart="850.22">
        <route edges="-E10 -E7 E6"/>
    </vehicle>
    <vehicle id="veh110" depart="850.87">
        <route edges="-E6 E7 E10"/>
    </vehicle>
    <vehicle id="veh1697" depart="851.17">
        <route edges="-E4 E0 E6"/>
    </vehicle>
    <vehicle id="veh1985" depart="851.53">
        <route edges="-E9 -E7 E6"/>
    </vehicle>
    <vehicle id="veh1533" depart="852.29">
        <route edges="-E13 -E12 E14"/>
    </vehicle>
    <vehicle id="veh1806" depart="852.96">
        <route edges="-E9 E10"/>
    </vehicle>
    <vehicle id="veh1835" depart="853.26">
        <route edges="-E14 -E8 E6"/>
    </vehicle>
    <vehicle id="veh1197" depart="855.34">
        <route edges="-E6 E8 E12 E13"/>
    </vehicle>
    <vehicle id="veh1935" depart="857.20">
        <route edges="-E14 -E8 E7 E10"/>
    </vehicle>
    <vehicle id="veh1620" depart="857.71">
        <route edges="-E13 -E11 E9"/>
    </vehicle>
    <vehicle id="veh130" depart="859.21">
        <route edges="-E14 -E8 E6"/>
    </vehicle>
    <vehicle id="veh757" depart="861.22">
        <route edges="-E9 E10"/>
    </vehicle>
    <vehicle id="veh203" depart="861.43">
        <route edges="-E2 E3 -E8 E6"/>
    </vehicle>
    <vehicle id="veh1953" depart="863.00">
        <route edges="-E2 E3 E12 E13"/>
    </vehicle>
    <vehicle id="veh590" depart="863.73">
        <route edges="-E13 -E12 E14"/>
    </vehicle>
    <vehicle id="veh726" depart="864.34">
        <route edges="-E13 -E12 -E8 E7 E11 E13"/>
    </vehicle>
    <vehicle id="veh1971" depart="864.37">
        <route edges="-E13 -E12 -E8 E6"/>
    </vehicle>
    <vehicle id="veh188" depart="867.31">
        <route edges="-E10 E11 E13"/>
    </vehicle>
    <vehicle id="veh431" depart="867.96">
        <route edges="-E6 E8 E12 E13"/>
    </vehicle>
    <vehicle id="veh1236" depart="870.95">
        <route edges="-E14 -E8 E7 E10"/>
    </vehicle>
    <vehicle id="veh77" depart="872.02">
        <route edges="-E4 E0 E6"/>
    </vehicle>
    <vehicle id="veh1567" depart="872.44">
        <route edges="-E9 E10"/>
    </vehicle>
    <vehicle id="veh15" depart="875.57">
        <route edges="-E13 -E12 -E8 E6"/>
    </vehicle>
    <vehicle id="veh716" depart="875.72">
        <route edges="-E10 E11 -E12 -E8 E7 E10"/>
    </vehicle>
    <vehicle id="veh1895" depart="876.26">
        <route edges="-E4 E0 E7 E11 E13"/>
    </vehicle>
    <vehicle id="veh1574" depart="877.65">
        <route edges="-E4 E0 E7 E11 E13"/>
    </vehicle>
    <vehicle id="veh1732" depart="879.14">
        <route edges="-E6 E8 E12 E13"/>
    </vehicle>
    <vehicle id="veh340" depart="879.70">
        <route edges="-E4 E0 E7 E10"/>
    </vehicle>
    <vehicle id="veh586" depart="880.84">
        <route edges="-E4 E0 E7 E11 E13"/>
    </vehicle>
    <vehicle id="veh1671" depart="881.98">
        <route edges="-E13 -E12 -E8 E6"/>
    </vehicle>
    <vehicle id="veh1033" depart="882.33">
        <route edges="-E10 E11 -E12 -E8 E7 E10"/>
    </vehicle>
    <vehicle id="veh629" depart="883.84">
        <route edges="-E2 E3 -E8 E6"/>
    </vehicle>
    <vehicle id="veh1102" depart="884.79">
        <route edges="-E4 E0 E7 E11 E13"/>
    </vehicle>
    <vehicle id="veh1042" depart="884.92">
        <route edges="-E2 -E1 E0 E7 E10"/>
    </vehicle>