<?xml version="1.0" encoding="UTF-8"?>

<!-- generated on 2026-05-31T19:12:49.743450+01:00 by Eclipse SUMO netedit 1.26.0
<neteditConfiguration xmlns:xsi="http://www.w3.org/2001/XMLSchema-instance" xsi:noNamespaceSchemaLocation="http://sumo.dlr.de/xsd/neteditConfiguration.xsd">

    <input>
        <sumo-net-file value="D:\Intersection_RL\Intersection-management-using-RL\src\City_map_2\city2.net.xml"/>
    </input>

    <output>
        <output-file value="D:\Intersection_RL\Intersection-management-using-RL\src\City_map_2\city2.net.xml"/>
    </output>

    <processing>
        <offset.disable-normalization value="true"/>
    </processing>

    <junctions>
        <no-turnarounds value="true"/>
    </junctions>

    <netedit>
        <new-network value="false"/>
    </netedit>

</neteditConfiguration>
-->

<net version="1.20" junctionCornerDetail="5" limitTurnSpeed="5.50" xmlns:xsi="http://www.w3.org/2001/XMLSchema-instance" xsi:noNamespaceSchemaLocation="http://sumo.dlr.de/xsd/net_file.xsd">

    <location netOffset="0.00,0.00" convBoundary="-196.42,-156.98,470.65,119.18" origBoundary="10000000000.00,10000000000.00,-10000000000.00,-10000000000.00" projParameter="!"/>

    <edge id=":J0_0" function="internal">
        <lane id=":J0_0_0" index="0" speed="13.89" length="11.09" shape="-70.46,32.26 -73.62,32.25 -76.04,32.41 -78.35,33.00 -81.20,34.28"/>
    </edge>
    <edge id=":J0_1" function="internal">
        <lane id=":J0_1_0" index="0" speed="8.47" length="3.82" shape="-70.46,32.26 -74.21,31.58"/>
    </edge>
    <edge id=":J0_6" function="internal">
        <lane id=":J0_6_0" index="0" speed="8.47" length="12.32" shape="-74.21,31.58 -74.32,31.56 -77.07,29.47 -78.69,25.98 -79.20,21.10"/>
    </edge>
    <edge id=":J0_2" function="internal">
        <lane id=":J0_2_0" index="0" speed="7.08" length="10.96" shape="-76.00,21.13 -75.68,24.60 -74.65,27.08 -72.91,28.56 -70.46,29.06"/>
    </edge>
    <edge id=":J0_3" function="internal">
        <lane id=":J0_3_0" index="0" speed="10.18" length="14.79" shape="-76.00,21.13 -76.36,25.89 -77.35,29.67 -78.96,32.47 -81.20,34.28"/>
    </edge>
    <edge id=":J0_4" function="internal">
        <lane id=":J0_4_0" index="0" speed="8.24" length="9.48" shape="-84.15,28.61 -82.00,27.18 -80.46,25.46 -79.52,23.43 -79.20,21.10"/>
    </edge>
    <edge id=":J0_5" function="internal">
        <lane id=":J0_5_0" index="0" speed="13.89" length="12.64" shape="-82.67,31.45 -79.14,29.86 -76.37,29.18 -73.70,29.03 -70.46,29.06"/>
    </edge>
    <edge id=":J1_0" function="internal">
        <lane id=":J1_0_0" index="0" speed="9.61" length="20.26" shape="153.73,37.94 152.51,35.45 149.07,33.68 143.42,32.61 135.56,32.26"/>
    </edge>
    <edge id=":J1_1" function="internal">
        <lane id=":J1_1_0" index="0" speed="12.22" length="22.65" shape="153.73,37.94 152.56,34.76 149.30,31.45 143.95,28.00 136.52,24.40"/>
    </edge>
    <edge id=":J1_2" function="internal">
        <lane id=":J1_2_0" index="0" speed="13.89" length="14.73" shape="153.73,37.94 153.63,23.21"/>
    </edge>
    <edge id=":J1_3" function="internal">
        <lane id=":J1_3_0" index="0" speed="8.03" length="4.31" shape="153.73,37.94 154.13,34.06 154.34,33.70"/>
    </edge>
    <edge id=":J1_16" function="internal">
        <lane id=":J1_16_0" index="0" speed="8.03" length="10.06" shape="154.34,33.70 155.71,31.24 158.46,29.49 162.38,28.79"/>
    </edge>
    <edge id=":J1_4" function="internal">
        <lane id=":J1_4_0" index="0" speed="6.54" length="9.19" shape="162.49,31.99 159.97,32.43 158.20,33.55 157.19,35.34 156.93,37.81"/>
    </edge>
    <edge id=":J1_5" function="internal">
        <lane id=":J1_5_0" index="0" speed="13.89" length="26.94" shape="162.49,31.99 135.56,32.26"/>
    </edge>
    <edge id=":J1_6" function="internal">
        <lane id=":J1_6_0" index="0" speed="13.89" length="4.48" shape="162.49,31.99 158.06,31.33"/>
    </edge>
    <edge id=":J1_7" function="internal">
        <lane id=":J1_7_0" index="0" speed="7.89" length="4.32" shape="162.49,31.99 158.52,31.57 158.24,31.40"/>
    </edge>
    <edge id=":J1_17" function="internal">
        <lane id=":J1_17_0" index="0" speed="13.89" length="22.66" shape="158.06,31.33 156.97,31.16 149.35,29.01 141.81,26.45 136.52,24.40"/>
    </edge>
    <edge id=":J1_18" function="internal">
        <lane id=":J1_18_0" index="0" speed="7.89" length="10.12" shape="158.24,31.40 155.72,29.96 154.09,27.18 153.63,23.21"/>
    </edge>
    <edge id=":J1_8" function="internal">
        <lane id=":J1_8_0" index="0" speed="6.37" length="9.04" shape="156.83,23.30 157.12,25.78 158.14,27.52 159.89,28.53 162.38,28.79"/>
    </edge>
    <edge id=":J1_9" function="internal">
        <lane id=":J1_9_0" index="0" speed="13.89" length="14.51" shape="156.83,23.30 156.93,37.81"/>
    </edge>
    <edge id=":J1_10" function="internal">
        <lane id=":J1_10_0" index="0" speed="10.59" length="2.17" shape="156.83,23.30 156.09,25.34"/>
    </edge>
    <edge id=":J1_11" function="internal">
        <lane id=":J1_11_0" index="0" speed="9.06" length="1.94" shape="156.83,23.30 156.07,25.08"/>
    </edge>
    <edge id=":J1_19" function="internal">
        <lane id=":J1_19_0" index="0" speed="10.59" length="22.96" shape="156.09,25.34 155.41,27.22 151.39,30.02 144.77,31.70 135.56,32.26"/>
    </edge>
    <edge id=":J1_20" function="internal">
        <lane id=":J1_20_0" index="0" speed="9.06" length="21.95" shape="156.07,25.08 155.02,27.54 150.48,28.58 144.04,27.27 136.52,24.40"/>
    </edge>
    <edge id=":J1_12" function="internal">
        <lane id=":J1_12_0" index="0" speed="5.71" length="12.67" shape="135.56,29.06 140.02,28.77 141.66,27.90 140.50,26.44 136.52,24.40"/>
    </edge>
    <edge id=":J1_13" function="internal">
        <lane id=":J1_13_0" index="0" speed="9.56" length="20.28" shape="135.56,29.06 143.40,28.69 149.03,27.60 152.44,25.77 153.63,23.21"/>
    </edge>
    <edge id=":J1_14" function="internal">
        <lane id=":J1_14_0" index="0" speed="13.89" length="26.82" shape="135.56,29.06 162.38,28.79"/>
    </edge>
    <edge id=":J1_15" function="internal">
        <lane id=":J1_15_0" index="0" speed="10.42" length="9.36" shape="135.56,29.06 142.12,29.81 144.77,30.57"/>
    </edge>
    <edge id=":J1_21" function="internal">
        <lane id=":J1_21_0" index="0" speed="10.42" length="14.64" shape="144.77,30.57 149.06,31.79 154.60,34.59 156.93,37.81"/>
    </edge>
    <edge id=":J10_0" function="internal">
        <lane id=":J10_0_0" index="0" speed="9.29" length="10.56" shape="368.54,-76.16 366.72,-74.64 365.37,-72.60 364.51,-70.07 364.12,-67.02"/>
    </edge>
    <edge id=":J10_1" function="internal">
        <lane id=":J10_1_0" index="0" speed="13.89" length="13.69" shape="368.54,-76.16 365.41,-74.54 362.28,-73.51 359.02,-72.95 355.47,-72.73"/>
    </edge>
    <edge id=":J10_2" function="internal">
        <lane id=":J10_2_0" index="0" speed="13.89" length="12.04" shape="355.38,-75.93 358.68,-76.08 361.40,-76.47 363.97,-77.33 366.86,-78.88"/>
    </edge>
    <edge id=":J10_3" function="internal">
        <lane id=":J10_3_0" index="0" speed="7.88" length="3.83" shape="355.38,-75.93 359.18,-75.49"/>
    </edge>
    <edge id=":J10_6" function="internal">
        <lane id=":J10_6_0" index="0" speed="7.88" length="10.64" shape="359.18,-75.49 359.36,-75.47 362.14,-73.83 363.73,-71.01 364.12,-67.02"/>
    </edge>
    <edge id=":J10_4" function="internal">
        <lane id=":J10_4_0" index="0" speed="6.36" length="9.04" shape="360.92,-67.17 360.68,-69.66 359.69,-71.42 357.95,-72.44 355.47,-72.73"/>
    </edge>
    <edge id=":J10_5" function="internal">
        <lane id=":J10_5_0" index="0" speed="10.51" length="13.67" shape="360.92,-67.17 361.43,-71.01 362.59,-74.24 364.40,-76.86 366.86,-78.88"/>
    </edge>
    <edge id=":J2_0" function="internal">
        <lane id=":J2_0_0" index="0" speed="6.47" length="11.64" shape="-66.25,-63.20 -70.14,-64.48 -72.93,-64.48 -74.62,-63.20 -75.21,-60.64"/>
    </edge>
    <edge id=":J2_1" function="internal">
        <lane id=":J2_1_0" index="0" speed="13.89" length="17.91" shape="-66.25,-63.20 -70.10,-64.93 -74.37,-67.05 -78.47,-69.44 -81.82,-71.94"/>
    </edge>
    <edge id=":J2_2" function="internal">
        <lane id=":J2_2_0" index="0" speed="4.99" length="6.89" shape="-66.25,-63.20 -67.49,-64.87 -67.66,-67.52 -67.01,-69.57"/>
    </edge>
    <edge id=":J2_9" function="internal">
        <lane id=":J2_9_0" index="0" speed="4.99" length="2.35" shape="-67.01,-69.57 -66.88,-69.97 -65.28,-71.05"/>
    </edge>
    <edge id=":J2_3" function="internal">
        <lane id=":J2_3_0" index="0" speed="7.94" length="13.87" shape="-65.28,-67.85 -69.60,-67.41 -72.69,-66.06 -74.56,-63.80 -75.21,-60.64"/>
    </edge>
    <edge id=":J2_4" function="internal">
        <lane id=":J2_4_0" index="0" speed="13.89" length="17.32" shape="-65.28,-67.85 -69.45,-68.02 -74.04,-68.64 -78.38,-69.89 -81.82,-71.94"/>
    </edge>
    <edge id=":J2_5" function="internal">
        <lane id=":J2_5_0" index="0" speed="12.85" length="13.88" shape="-77.51,-76.68 -74.20,-73.89 -71.40,-72.17 -68.60,-71.30 -65.28,-71.05"/>
    </edge>
    <edge id=":J2_6" function="internal">
        <lane id=":J2_6_0" index="0" speed="11.96" length="3.00" shape="-79.66,-74.31 -78.00,-71.97 -77.95,-71.85"/>
    </edge>
    <edge id=":J2_10" function="internal">
        <lane id=":J2_10_0" index="0" speed="11.96" length="11.62" shape="-77.95,-71.85 -76.56,-68.49 -75.56,-64.49 -75.21,-60.64"/>
    </edge>
    <edge id=":J2_7" function="internal">
        <lane id=":J2_7_0" index="0" speed="10.91" length="12.10" shape="-78.41,-60.67 -78.59,-64.41 -79.22,-67.54 -80.29,-70.05 -81.82,-71.94"/>
    </edge>
    <edge id=":J2_8" function="internal">
        <lane id=":J2_8_0" index="0" speed="9.20" length="18.98" shape="-78.41,-60.67 -77.55,-65.22 -75.07,-68.47 -70.98,-70.41 -65.28,-71.05"/>
    </edge>
    <edge id=":J4_0" function="internal">
        <lane id=":J4_0_0" index="0" speed="6.79" length="9.52" shape="165.15,-67.67 162.58,-67.24 160.71,-66.11 159.57,-64.28 159.13,-61.75"/>
    </edge>
    <edge id=":J4_1" function="internal">
        <lane id=":J4_1_0" index="0" speed="13.89" length="14.71" shape="165.15,-67.67 150.45,-67.48"/>
    </edge>
    <edge id=":J4_2" function="internal">
        <lane id=":J4_2_0" index="0" speed="7.91" length="4.22" shape="165.15,-67.67 161.20,-68.13 160.99,-68.25"/>
    </edge>
    <edge id=":J4_12" function="internal">
        <lane id=":J4_12_0" index="0" speed="7.91" length="10.19" shape="160.99,-68.25 158.41,-69.75 156.79,-72.54 156.34,-76.49"/>
    </edge>
    <edge id=":J4_3" function="internal">
        <lane id=":J4_3_0" index="0" speed="6.39" length="9.04" shape="159.54,-76.40 159.82,-73.92 160.84,-72.17 162.59,-71.16 165.07,-70.87"/>
    </edge>
    <edge id=":J4_4" function="internal">
        <lane id=":J4_4_0" index="0" speed="13.89" length="14.66" shape="159.54,-76.40 159.13,-61.75"/>
    </edge>
    <edge id=":J4_5" function="internal">
        <lane id=":J4_5_0" index="0" speed="8.14" length="4.14" shape="159.54,-76.40 158.87,-72.49 158.78,-72.34"/>
    </edge>
    <edge id=":J4_13" function="internal">
        <lane id=":J4_13_0" index="0" speed="8.14" length="10.30" shape="158.78,-72.34 157.14,-69.70 154.33,-68.03 150.45,-67.48"/>
    </edge>
    <edge id=":J4_6" function="internal">
        <lane id=":J4_6_0" index="0" speed="6.68" length="9.38" shape="150.45,-70.68 152.97,-71.04 154.78,-72.13 155.91,-73.95 156.34,-76.49"/>
    </edge>
    <edge id=":J4_7" function="internal">
        <lane id=":J4_7_0" index="0" speed="13.89" length="14.62" shape="150.45,-70.68 165.07,-70.87"/>
    </edge>
    <edge id=":J4_8" function="internal">
        <lane id=":J4_8_0" index="0" speed="7.96" length="3.93" shape="150.45,-70.68 154.34,-70.12"/>
    </edge>
    <edge id=":J4_14" function="internal">
        <lane id=":J4_14_0" index="0" speed="7.96" length="10.36" shape="154.34,-70.12 157.08,-68.44 158.68,-65.65 159.13,-61.75"/>
    </edge>
    <edge id=":J4_9" function="internal">
        <lane id=":J4_9_0" index="0" speed="6.45" length="9.03" shape="155.93,-61.83 155.65,-64.30 154.64,-66.07 152.90,-67.13 150.45,-67.48"/>
    </edge>
    <edge id=":J4_10" function="internal">
        <lane id=":J4_10_0" index="0" speed="13.89" length="14.66" shape="155.93,-61.83 156.34,-76.49"/>
    </edge>
    <edge id=":J4_11" function="internal">
        <lane id=":J4_11_0" index="0" speed="8.24" length="4.10" shape="155.93,-61.83 156.59,-65.70 156.69,-65.85"/>
    </edge>
    <edge id=":J4_15" function="internal">
        <lane id=":J4_15_0" index="0" speed="8.24" length="10.38" shape="156.69,-65.85 158.34,-68.49 161.16,-70.21 165.07,-70.87"/>
    </edge>
    <edge id=":J7_0" function="internal">
        <lane id=":J7_0_0" index="0" speed="5.76" length="9.17" shape="364.94,29.79 362.53,28.57 360.65,28.62 359.32,29.94 358.53,32.53"/>
    </edge>
    <edge id=":J7_1" function="internal">
        <lane id=":J7_1_0" index="0" speed="13.89" length="15.33" shape="364.94,29.79 361.66,27.85 358.08,26.36 354.33,25.44 350.56,25.20"/>
    </edge>
    <edge id=":J7_2" function="internal">
        <lane id=":J7_2_0" index="0" speed="11.13" length="3.94" shape="364.94,29.79 361.91,27.27"/>
    </edge>
    <edge id=":J7_12" function="internal">
        <lane id=":J7_12_0" index="0" speed="11.13" length="12.35" shape="361.91,27.27 361.38,26.82 358.89,23.59 357.46,20.08 357.11,16.31"/>
    </edge>
    <edge id=":J7_3" function="internal">
        <lane id=":J7_3_0" index="0" speed="10.00" length="13.05" shape="360.31,16.45 360.61,19.39 361.78,22.15 363.83,24.74 366.76,27.15"/>
    </edge>
    <edge id=":J7_4" function="internal">
        <lane id=":J7_4_0" index="0" speed="13.89" length="16.18" shape="360.31,16.45 360.04,20.38 359.63,24.51 359.11,28.63 358.53,32.53"/>
    </edge>
    <edge id=":J7_5" function="internal">
        <lane id=":J7_5_0" index="0" speed="8.38" length="4.03" shape="360.31,16.45 359.55,20.15 359.41,20.36"/>
    </edge>
    <edge id=":J7_13" function="internal">
        <lane id=":J7_13_0" index="0" speed="8.38" length="10.65" shape="359.41,20.36 357.68,22.85 354.68,24.53 350.56,25.20"/>
    </edge>
    <edge id=":J7_6" function="internal">
        <lane id=":J7_6_0" index="0" speed="6.96" length="9.82" shape="350.44,22.01 353.26,21.56 355.32,20.46 356.60,18.71 357.11,16.31"/>
    </edge>
    <edge id=":J7_7" function="internal">
        <lane id=":J7_7_0" index="0" speed="13.89" length="17.33" shape="350.44,22.01 354.52,22.33 358.93,23.45 363.18,25.13 366.76,27.15"/>
    </edge>
    <edge id=":J7_8" function="internal">
        <lane id=":J7_8_0" index="0" speed="7.91" length="5.06" shape="350.44,22.01 354.64,22.53 355.31,23.01"/>
    </edge>
    <edge id=":J7_14" function="internal">
        <lane id=":J7_14_0" index="0" speed="7.91" length="10.84" shape="355.31,23.01 357.38,24.46 358.68,27.79 358.53,32.53"/>
    </edge>
    <edge id=":J7_9" function="internal">
        <lane id=":J7_9_0" index="0" speed="6.39" length="9.97" shape="355.37,32.02 355.49,28.96 354.73,26.80 353.09,25.55 350.56,25.20"/>
    </edge>
    <edge id=":J7_10" function="internal">
        <lane id=":J7_10_0" index="0" speed="13.89" length="15.82" shape="355.37,32.02 355.94,28.18 356.45,24.18 356.85,20.17 357.11,16.31"/>
    </edge>
    <edge id=":J7_11" function="internal">
        <lane id=":J7_11_0" index="0" speed="7.45" length="4.62" shape="355.37,32.02 356.72,27.60"/>
    </edge>
    <edge id=":J7_15" function="internal">
        <lane id=":J7_15_0" index="0" speed="7.45" length="11.66" shape="356.72,27.60 356.77,27.42 359.14,25.07 362.47,24.99 366.76,27.15"/>
    </edge>

    <edge id="-E0" from="J1" to="J0" priority="-1">
        <lane id="-E0_0" index="0" speed="13.89" length="206.01" shape="135.56,32.26 -70.46,32.26"/>
    </edge>
    <edge id="-E1" from="J2" to="J0" priority="-1">
        <lane id="-E1_0" index="0" speed="13.89" length="81.77" shape="-75.21,-60.64 -76.00,21.13"/>
    </edge>
    <edge id="-E10" from="J9" to="J7" priority="-1">
        <lane id="-E10_0" index="0" speed="13.89" length="127.33" shape="469.74,102.12 364.94,29.79"/>
    </edge>
    <edge id="-E11" from="J10" to="J7" priority="-1">
        <lane id="-E11_0" index="0" speed="13.89" length="83.56" shape="364.12,-67.02 360.31,16.45"/>
    </edge>
    <edge id="-E12" from="J10" to="J4" priority="-1">
        <lane id="-E12_0" index="0" speed="13.89" length="190.38" shape="355.47,-72.73 165.15,-67.67"/>
    </edge>
    <edge id="-E13" from="J11" to="J10" priority="-1">
        <lane id="-E13_0" index="0" speed="13.89" length="95.35" shape="449.63,-126.32 368.54,-76.16"/>
    </edge>
    <edge id="-E14" from="J12" to="J4" priority="-1">
        <lane id="-E14_0" index="0" speed="13.89" length="80.56" shape="161.81,-156.93 159.54,-76.40"/>
    </edge>
    <edge id="-E2" from="J3" to="J2" priority="-1">
        <lane id="-E2_0" index="0" speed="13.89" length="112.07" shape="-160.41,-152.09 -77.51,-76.68"/>
        <lane id="-E2_1" index="1" speed="13.89" length="112.07" shape="-162.56,-149.72 -79.66,-74.31"/>
    </edge>
    <edge id="-E3" from="J4" to="J2" priority="-1">
        <lane id="-E3_0" index="0" speed="13.89" length="215.73" shape="150.45,-67.48 -65.28,-67.85"/>
    </edge>
    <edge id="-E4" from="J5" to="J0" priority="-1">
        <lane id="-E4_0" index="0" speed="13.89" length="129.02" shape="-198.63,88.10 -84.15,28.61"/>
        <lane id="-E4_1" index="1" speed="13.89" length="129.02" shape="-197.16,90.94 -82.67,31.45"/>
    </edge>
    <edge id="-E6" from="J6" to="J1" priority="-1">
        <lane id="-E6_0" index="0" speed="13.89" length="81.38" shape="157.12,119.25 153.73,37.94"/>
    </edge>
    <edge id="-E7" from="J7" to="J1" priority="-1">
        <lane id="-E7_0" index="0" speed="13.89" length="188.19" shape="350.56,25.20 162.49,31.99"/>
    </edge>
    <edge id="-E8" from="J4" to="J1" priority="-1">
        <lane id="-E8_0" index="0" speed="13.89" length="85.08" shape="159.13,-61.75 156.83,23.30"/>
    </edge>
    <edge id="-E9" from="J8" to="J7" priority="-1">
        <lane id="-E9_0" index="0" speed="13.89" length="68.92" shape="344.40,100.06 355.37,32.02"/>
    </edge>
    <edge id="E0" from="J0" to="J1" priority="-1">
        <lane id="E0_0" index="0" speed="13.89" length="206.01" shape="-70.46,29.06 135.56,29.06"/>
    </edge>
    <edge id="E1" from="J0" to="J2" priority="-1">
        <lane id="E1_0" index="0" speed="13.89" length="81.77" shape="-79.20,21.10 -78.41,-60.67"/>
    </edge>
    <edge id="E10" from="J7" to="J9" priority="-1">
        <lane id="E10_0" index="0" speed="13.89" length="127.33" shape="366.76,27.15 471.56,99.48"/>
    </edge>
    <edge id="E11" from="J7" to="J10" priority="-1">
        <lane id="E11_0" index="0" speed="13.89" length="83.56" shape="357.11,16.31 360.92,-67.17"/>
    </edge>
    <edge id="E12" from="J4" to="J10" priority="-1">
        <lane id="E12_0" index="0" speed="13.89" length="190.38" shape="165.07,-70.87 355.38,-75.93"/>
    </edge>
    <edge id="E13" from="J10" to="J11" priority="-1">
        <lane id="E13_0" index="0" speed="13.89" length="95.35" shape="366.86,-78.88 447.95,-129.04"/>
    </edge>
    <edge id="E14" from="J4" to="J12" priority="-1">
        <lane id="E14_0" index="0" speed="13.89" length="80.56" shape="156.34,-76.49 158.61,-157.03"/>
    </edge>
    <edge id="E2" from="J2" to="J3" priority="-1">
        <lane id="E2_0" index="0" speed="13.89" length="112.07" shape="-81.82,-71.94 -164.72,-147.36"/>
    </edge>
    <edge id="E3" from="J2" to="J4" priority="-1">
        <lane id="E3_0" index="0" speed="13.89" length="215.73" shape="-65.28,-71.05 150.45,-70.68"/>
    </edge>
    <edge id="E4" from="J0" to="J5" priority="-1">
        <lane id="E4_0" index="0" speed="13.89" length="129.02" shape="-81.20,34.28 -195.68,93.78"/>
    </edge>
    <edge id="E5" from="J1" to="J2" priority="-1">
        <lane id="E5_0" index="0" speed="13.89" length="220.88" shape="136.52,24.40 -66.25,-63.20"/>
    </edge>
    <edge id="E6" from="J1" to="J6" priority="-1">
        <lane id="E6_0" index="0" speed="13.89" length="81.38" shape="156.93,37.81 160.32,119.11"/>
    </edge>
    <edge id="E7" from="J1" to="J7" priority="-1">
        <lane id="E7_0" index="0" speed="13.89" length="188.19" shape="162.38,28.79 350.44,22.01"/>
    </edge>
    <edge id="E8" from="J1" to="J4" priority="-1">
        <lane id="E8_0" index="0" speed="13.89" length="85.08" shape="153.63,23.21 155.93,-61.83"/>
    </edge>
    <edge id="E9" from="J7" to="J8" priority="-1">
        <lane id="E9_0" index="0" speed="13.89" length="68.92" shape="358.53,32.53 347.56,100.56"/>
    </edge>

    <tlLogic id="J0" type="static" programID="0" offset="0">
        <phase duration="42" state="GgrrGG"/>
        <phase duration="3"  state="yyrrGy"/>
        <phase duration="42" state="rrGGGr"/>
        <phase duration="3"  state="rryyGr"/>
    </tlLogic>
    <tlLogic id="J1" type="static" programID="0" offset="0">
        <phase duration="42" state="rrrrGGggrrrrGGGg"/>
        <phase duration="3"  state="rrrryyyyrrrryyyy"/>
        <phase duration="42" state="GGGgrrrrGGggrrrr"/>
        <phase duration="3"  state="yyyyrrrryyyyrrrr"/>
    </tlLogic>
    <tlLogic id="J10" type="static" programID="0" offset="0">
        <phase duration="42" state="GGGgrr"/>
        <phase duration="3"  state="Gyyyrr"/>
        <phase duration="42" state="GrrrGG"/>
        <phase duration="3"  state="Grrryy"/>
    </tlLogic>
    <tlLogic id="J2" type="static" programID="0" offset="0">
        <phase duration="24" state="GGgrrGgrr"/>
        <phase duration="3"  state="yygrrygrr"/>
        <phase duration="6"  state="rrGrrrGrr"/>
        <phase duration="3"  state="rryrrryrr"/>
        <phase duration="24" state="GrrrrrrGG"/>
        <phase duration="3"  state="yrrrrrryy"/>
        <phase duration="24" state="rrrGGGrrr"/>
        <phase duration="3"  state="rrryyGrrr"/>
    </tlLogic>
    <tlLogic id="J4" type="static" programID="0" offset="0">
        <phase duration="42" state="rrrGGgrrrGGg"/>
        <phase duration="3"  state="rrryyyrrryyy"/>
        <phase duration="42" state="GGgrrrGGgrrr"/>
        <phase duration="3"  state="yyyrrryyyrrr"/>
    </tlLogic>
    <tlLogic id="J7" type="static" programID="0" offset="0">
        <phase duration="42" state="rrrGGgrrrGGg"/>
        <phase duration="3"  state="rrryyyrrryyy"/>
        <phase duration="42" state="GGgrrrGGgrrr"/>
        <phase duration="3"  state="yyyrrryyyrrr"/>
    </tlLogic>

    <junction id="J0" type="traffic_light" x="-77.69" y="30.66" incLanes="-E0_0 -E1_0 -E4_0 -E4_1" intLanes=":J0_0_0 :J0_6_0 :J0_2_0 :J0_3_0 :J0_4_0 :J0_5_0" shape="-70.46,33.86 -70.46,27.46 -72.67,26.76 -73.44,25.88 -73.99,24.65 -74.31,23.07 -74.40,21.14 -80.80,21.08 -81.27,23.54 -81.84,24.61 -82.63,25.57 -83.65,26.43 -84.88,27.19 -80.46,35.70 -78.50,34.75 -76.99,34.18 -75.67,33.90 -74.31,33.82 -72.65,33.83">
        <request index="0" response="000000" foes="001000" cont="0"/>
        <request index="1" response="110000" foes="111000" cont="1"/>
        <request index="2" response="100000" foes="100000" cont="0"/>
        <request index="3" response="100011" foes="100011" cont="0"/>
        <request index="4" response="000000" foes="000010" cont="0"/>
        <request index="5" response="000000" foes="001110" cont="0"/>
    </junction>
    <junction id="J1" type="traffic_light" x="155.03" y="30.66" incLanes="-E6_0 -E7_0 -E8_0 E0_0" intLanes=":J1_0_0 :J1_1_0 :J1_2_0 :J1_16_0 :J1_4_0 :J1_5_0 :J1_17_0 :J1_18_0 :J1_8_0 :J1_9_0 :J1_19_0 :J1_20_0 :J1_12_0 :J1_13_0 :J1_14_0 :J1_21_0" shape="152.13,38.00 158.53,37.74 158.90,35.50 159.45,34.70 160.24,34.12 161.27,33.75 162.55,33.59 162.32,27.19 160.11,26.83 159.35,26.30 158.81,25.55 158.51,24.56 158.43,23.34 152.03,23.17 150.30,25.86 148.23,26.17 145.35,25.79 141.65,24.71 137.15,22.94 135.88,25.87 135.56,27.46 135.56,33.86 140.57,33.98 144.69,34.32 147.90,34.90 150.21,35.70 151.62,36.74">
        <request index="0"  response="0000000000100000" foes="0000010000100000" cont="0"/>
        <request index="1"  response="1111000001100000" foes="1111110001100000" cont="0"/>
        <request index="2"  response="1110000011100000" foes="1110110011100000" cont="0"/>
        <request index="3"  response="1100001111100000" foes="1100001111100000" cont="1"/>
        <request index="4"  response="0000000000000000" foes="1000001000000000" cont="0"/>
        <request index="5"  response="0000010000001000" foes="1000011000001111" cont="0"/>
        <request index="6"  response="0111110000001000" foes="0111111000001110" cont="1"/>
        <request index="7"  response="0110110000001000" foes="0110111000001100" cont="1"/>
        <request index="8"  response="0100000000000000" foes="0100000000001000" cont="0"/>
        <request index="9"  response="1100000011110000" foes="1100000011111000" cont="0"/>
        <request index="10" response="1100000011100111" foes="1100000011100111" cont="1"/>
        <request index="11" response="0011000011000110" foes="0011000011000110" cont="1"/>
        <request index="12" response="0000100000000000" foes="0000100001000010" cont="0"/>
        <request index="13" response="0000100000000000" foes="0000100011000110" cont="0"/>
        <request index="14" response="0000010000001000" foes="0000011111001110" cont="0"/>
        <request index="15" response="0000010000111000" foes="0000011000111110" cont="1"/>
    </junction>
    <junction id="J10" type="traffic_light" x="362.86" y="-74.53" incLanes="-E13_0 E12_0 E11_0" intLanes=":J10_0_0 :J10_1_0 :J10_2_0 :J10_6_0 :J10_4_0 :J10_5_0" shape="369.38,-74.80 366.01,-80.24 363.98,-79.05 362.39,-78.29 360.98,-77.86 359.51,-77.66 357.72,-77.58 355.34,-77.53 355.51,-71.13 357.71,-70.75 358.46,-70.21 358.98,-69.45 359.27,-68.46 359.32,-67.24 365.72,-66.95 366.24,-70.38 366.76,-71.79 367.46,-72.99 368.33,-74.00">
        <request index="0" response="000000" foes="001000" cont="0"/>
        <request index="1" response="000000" foes="111000" cont="0"/>
        <request index="2" response="000000" foes="100000" cont="0"/>
        <request index="3" response="000011" foes="100011" cont="1"/>
        <request index="4" response="000010" foes="000010" cont="0"/>
        <request index="5" response="001110" foes="001110" cont="0"/>
    </junction>
    <junction id="J11" type="dead_end" x="448.79" y="-127.68" incLanes="E13_0" intLanes="" shape="448.79,-127.68 447.11,-130.40 448.79,-127.68"/>
    <junction id="J12" type="dead_end" x="160.21" y="-156.98" incLanes="E14_0" intLanes="" shape="160.21,-156.98 157.01,-157.07 160.21,-156.98"/>
    <junction id="J2" type="traffic_light" x="-76.72" y="-69.47" incLanes="E5_0 -E3_0 -E2_0 -E2_1 E1_0" intLanes=":J2_0_0 :J2_1_0 :J2_9_0 :J2_3_0 :J2_4_0 :J2_5_0 :J2_10_0 :J2_7_0 :J2_8_0" shape="-66.88,-61.73 -65.61,-64.67 -65.28,-66.25 -65.27,-72.65 -67.92,-72.75 -69.89,-73.09 -71.45,-73.71 -72.88,-74.67 -74.45,-76.04 -76.43,-77.86 -82.89,-70.76 -81.26,-68.44 -80.69,-66.89 -80.29,-65.08 -80.07,-63.01 -80.01,-60.68 -73.61,-60.62 -72.84,-62.52 -71.91,-62.90 -70.60,-62.89 -68.93,-62.50">
        <request index="0" response="000000000" foes="001001000" cont="0"/>
        <request index="1" response="000000000" foes="111011000" cont="0"/>
        <request index="2" response="000100000" foes="100111000" cont="1"/>
        <request index="3" response="001000111" foes="001000111" cont="0"/>
        <request index="4" response="001000110" foes="111000110" cont="0"/>
        <request index="5" response="000000000" foes="100000100" cont="0"/>
        <request index="6" response="000000011" foes="100011011" cont="1"/>
        <request index="7" response="000010010" foes="000010010" cont="0"/>
        <request index="8" response="001110110" foes="001110110" cont="0"/>
    </junction>
    <junction id="J3" type="dead_end" x="-163.64" y="-148.54" incLanes="E2_0" intLanes="" shape="-163.64,-148.54 -165.79,-146.17 -163.64,-148.54"/>
    <junction id="J4" type="traffic_light" x="157.73" y="-69.07" incLanes="-E12_0 -E14_0 E3_0 E8_0" intLanes=":J4_0_0 :J4_1_0 :J4_12_0 :J4_3_0 :J4_4_0 :J4_13_0 :J4_6_0 :J4_7_0 :J4_14_0 :J4_9_0 :J4_10_0 :J4_15_0" shape="165.19,-66.07 165.02,-72.47 162.81,-72.85 162.05,-73.39 161.52,-74.15 161.21,-75.14 161.14,-76.36 154.74,-76.54 154.21,-74.17 153.61,-73.34 152.78,-72.75 151.73,-72.40 150.45,-72.28 150.44,-65.88 152.65,-65.43 153.42,-64.88 153.95,-64.10 154.26,-63.10 154.33,-61.88 160.73,-61.70 161.28,-64.08 161.90,-64.92 162.77,-65.53 163.86,-65.91">
        <request index="0"  response="000000010000" foes="000100010000" cont="0"/>
        <request index="1"  response="111000110000" foes="111100110000" cont="0"/>
        <request index="2"  response="110111110000" foes="110111110000" cont="1"/>
        <request index="3"  response="000000000000" foes="100010000000" cont="0"/>
        <request index="4"  response="000100000100" foes="100110000111" cont="0"/>
        <request index="5"  response="111100000100" foes="111110000110" cont="1"/>
        <request index="6"  response="010000000000" foes="010000000100" cont="0"/>
        <request index="7"  response="110000111000" foes="110000111100" cont="0"/>
        <request index="8"  response="110000110011" foes="110000110111" cont="1"/>
        <request index="9"  response="000000000000" foes="000000100010" cont="0"/>
        <request index="10" response="000100000100" foes="000111100110" cont="0"/>
        <request index="11" response="000100011100" foes="000110111110" cont="1"/>
    </junction>
    <junction id="J5" type="dead_end" x="-196.42" y="92.36" incLanes="E4_0" intLanes="" shape="-196.42,92.36 -194.94,95.20 -196.42,92.36"/>
    <junction id="J6" type="dead_end" x="158.72" y="119.18" incLanes="E6_0" intLanes="" shape="158.72,119.18 161.92,119.05 158.72,119.18"/>