<?xml version="1.0" encoding="UTF-8"?>

<!-- generated on 2026-06-15T16:41:05.323031+01:00 by Eclipse SUMO duarouter 1.27.0
<duarouterConfiguration xmlns:xsi="http://www.w3.org/2001/XMLSchema-instance" xsi:noNamespaceSchemaLocation="http://sumo.dlr.de/xsd/duarouterConfiguration.xsd">

    <input>
        <net-file value="C:\Users\RODO\Desktop\Sys auto - Projekt\src\City_map_2\city2.net.xml"/>
        <route-files value="C:\Users\RODO\AppData\Local\Temp\city2_train_0.trips.xml"/>
    </input>

    <output>
        <output-file value="C:\Users\RODO\Desktop\Sys auto - Projekt\src\City_map_2\city2_train_0.rou.xml"/>
    </output>

    <report>
        <no-warnings value="true"/>
        <ignore-errors value="true"/>
    </report>

    <random_number>
        <seed value="1000"/>
    </random_number>

</duarouterConfiguration>
-->

<routes xmlns:xsi="http://www.w3.org/2001/XMLSchema-instance" xsi:noNamespaceSchemaLocation="http://sumo.dlr.de/xsd/routes_file.xsd">
    <vehicle id="veh530" depart="2.75">
        <route edges="-E14 -E8 E6"/>
    </vehicle>
    <vehicle id="veh456" depart="2.94">
        <route edges="-E9 E10"/>
    </vehicle>
    <vehicle id="veh824" depart="3.07">
        <route edges="-E6 E8 E12 E13"/>
    </vehicle>
    <vehicle id="veh977" depart="5.49">
        <route edges="-E9 E10"/>
    </vehicle>
    <vehicle id="veh1129" depart="6.73">
        <route edges="-E6 E7 E10"/>
    </vehicle>
    <vehicle id="veh979" depart="11.76">
        <route edges="-E10 -E7 -E0 E4"/>
    </vehicle>
    <vehicle id="veh1041" depart="20.63">
        <route edges="-E14 E12 E13"/>
    </vehicle>
    <vehicle id="veh560" depart="24.15">
        <route edges="-E9 E10"/>
    </vehicle>
    <vehicle id="veh661" depart="24.60">
        <route edges="-E10 E11 -E12 -E8 E7 E10"/>
    </vehicle>
    <vehicle id="veh866" depart="28.76">
        <route edges="-E2 -E1 E0 E5 E2"/>
    </vehicle>
    <vehicle id="veh678" depart="32.46">
        <route edges="-E14 E12 E13"/>
    </vehicle>
    <vehicle id="veh840" depart="33.89">
        <route edges="-E10 E11 E13"/>
    </vehicle>
    <vehicle id="veh974" depart="34.46">
        <route edges="-E4 E0 E7 E10"/>
    </vehicle>
    <vehicle id="veh784" depart="34.54">
        <route edges="-E6 E7 E10"/>
    </vehicle>
    <vehicle id="veh485" depart="35.37">
        <route edges="-E9 E11 E13"/>
    </vehicle>
    <vehicle id="veh762" depart="36.42">
        <route edges="-E14 -E8 E6"/>
    </vehicle>
    <vehicle id="veh674" depart="36.51">
        <route edges="-E13 -E12 -E8 E6"/>
    </vehicle>
    <vehicle id="veh695" depart="38.49">
        <route edges="-E10 E9"/>
    </vehicle>
    <vehicle id="veh154" depart="39.34">
        <route edges="-E9 -E7 E6"/>
    </vehicle>
    <vehicle id="veh138" depart="43.17">
        <route edges="-E9 E11 -E12 E14"/>
    </vehicle>
    <vehicle id="veh839" depart="49.04">
        <route edges="-E9 -E7 E6"/>
    </vehicle>
    <vehicle id="veh335" depart="52.38">
        <route edges="-E14 -E8 E6"/>
    </vehicle>
    <vehicle id="veh420" depart="53.04">
        <route edges="-E4 E0 E6"/>
    </vehicle>
    <vehicle id="veh1036" depart="57.15">
        <route edges="-E10 E11 E13"/>
    </vehicle>
    <vehicle id="veh410" depart="58.67">
        <route edges="-E2 E3 -E8 E6"/>
    </vehicle>
    <vehicle id="veh168" depart="60.57">
        <route edges="-E4 E0 E6"/>
    </vehicle>
    <vehicle id="veh204" depart="61.43">
        <route edges="-E2 E3 E12 -E11 E9"/>
    </vehicle>
    <vehicle id="veh1009" depart="66.55">
        <route edges="-E14 -E8 E6"/>
    </vehicle>
    <vehicle id="veh1107" depart="68.35">
        <route edges="-E4 E0 E7 E11 E13"/>
    </vehicle>
    <vehicle id="veh761" depart="72.37">
        <route edges="-E2 E3 E12 E13"/>
    </vehicle>
    <vehicle id="veh885" depart="72.90">
        <route edges="-E2 E3 -E8 E6"/>
    </vehicle>
    <vehicle id="veh1099" depart="77.01">
        <route edges="-E10 E11 E13"/>
    </vehicle>
    <vehicle id="veh377" depart="79.60">
        <route edges="-E14 -E8 E6"/>
    </vehicle>
    <vehicle id="veh520" depart="95.72">
        <route edges="-E10 -E7 E6"/>
    </vehicle>
    <vehicle id="veh645" depart="103.10">
        <route edges="-E2 E3 -E8 E6"/>
    </vehicle>
    <vehicle id="veh1191" depart="103.19">
        <route edges="-E9 -E7 -E0 E4"/>
    </vehicle>
    <vehicle id="veh632" depart="107.23">
        <route edges="-E13 -E11 E10"/>
    </vehicle>
    <vehicle id="veh930" depart="110.92">
        <route edges="-E10 E11 E13"/>
    </vehicle>
    <vehicle id="veh849" depart="110.99">
        <route edges="-E2 E3 -E8 E6"/>
    </vehicle>
    <vehicle id="veh226" depart="115.31">
        <route edges="-E2 E3 E12 E13"/>
    </vehicle>
    <vehicle id="veh526" depart="119.95">
        <route edges="-E10 E11 E13"/>
    </vehicle>
    <vehicle id="veh752" depart="121.00">
        <route edges="-E9 E11 E13"/>
    </vehicle>
    <vehicle id="veh216" depart="124.51">
        <route edges="-E9 -E7 E6"/>
    </vehicle>
    <vehicle id="veh349" depart="124.73">
        <route edges="-E4 E0 E7 E9"/>
    </vehicle>
    <vehicle id="veh184" depart="128.67">
        <route edges="-E13 -E12 -E8 E6"/>
    </vehicle>
    <vehicle id="veh386" depart="130.48">
        <route edges="-E4 E0 E6"/>
    </vehicle>
    <vehicle id="veh27" depart="131.48">
        <route edges="-E10 E11 -E12 -E8 E7 E10"/>
    </vehicle>
    <vehicle id="veh1083" depart="134.96">
        <route edges="-E4 E0 E7 E9"/>
    </vehicle>
    <vehicle id="veh1098" depart="137.78">
        <route edges="-E10 E11 E13"/>
    </vehicle>
    <vehicle id="veh1076" depart="139.07">
        <route edges="-E13 -E11 E10"/>
    </vehicle>
    <vehicle id="veh655" depart="156.16">
        <route edges="-E4 E0 E7 E10"/>
    </vehicle>
    <vehicle id="veh427" depart="162.63">
        <route edges="-E4 E0 E7 E11 E13"/>
    </vehicle>
    <vehicle id="veh404" depart="163.74">
        <route edges="-E6 E8 E14"/>
    </vehicle>
    <vehicle id="veh16" depart="163.98">
        <route edges="-E2 E3 -E8 E6"/>
    </vehicle>
    <vehicle id="veh79" depart="166.49">
        <route edges="-E6 E7 E10"/>
    </vehicle>
    <vehicle id="veh532" depart="170.47">
        <route edges="-E14 E12 E13"/>
    </vehicle>
    <vehicle id="veh960" depart="170.84">
        <route edges="-E2 -E1 E0 E7 E10"/>
    </vehicle>
    <vehicle id="veh394" depart="172.50">
        <route edges="-E2 E3 -E8 E6"/>
    </vehicle>
    <vehicle id="veh489" depart="172.58">
        <route edges="-E6 E8 E12 E13"/>
    </vehicle>
    <vehicle id="veh152" depart="177.59">
        <route edges="-E10 E11 -E12 -E8 E7 E10"/>
    </vehicle>
    <vehicle id="veh770" depart="177.76">
        <route edges="-E2 E3 -E8 E6"/>
    </vehicle>
    <vehicle id="veh123" depart="178.63">
        <route edges="-E6 E5 -E1 E0 E6"/>
    </vehicle>
    <vehicle id="veh502" depart="178.94">
        <route edges="-E14 -E8 E6"/>
    </vehicle>
    <vehicle id="veh932" depart="181.78">
        <route edges="-E13 -E12 -E8 E6"/>
    </vehicle>
    <vehicle id="veh221" depart="182.93">
        <route edges="-E4 E0 E7 E10"/>
    </vehicle>
    <vehicle id="veh475" depart="183.42">
        <route edges="-E2 E3 -E8 E6"/>
    </vehicle>
    <vehicle id="veh332" depart="184.23">
        <route edges="-E4 E0 E7 E11 E13"/>
    </vehicle>
    <vehicle id="veh588" depart="195.04">
        <route edges="-E4 E0 E7 E9"/>
    </vehicle>
    <vehicle id="veh229" depart="201.51">
        <route edges="-E4 E0 E7 E10"/>
    </vehicle>
    <vehicle id="veh233" depart="203.71">
        <route edges="-E6 E7 E10"/>
    </vehicle>
    <vehicle id="veh766" depart="207.10">
        <route edges="-E10 E9"/>
    </vehicle>
    <vehicle id="veh321" depart="210.24">
        <route edges="-E2 E3 E12 E13"/>
    </vehicle>
    <vehicle id="veh294" depart="212.37">
        <route edges="-E14 -E8 E7 E10"/>
    </vehicle>
    <vehicle id="veh952" depart="212.95">
        <route edges="-E13 -E12 -E8 E6"/>
    </vehicle>
    <vehicle id="veh512" depart="216.02">
        <route edges="-E14 -E8 E7 E10"/>
    </vehicle>
    <vehicle id="veh579" depart="216.97">
        <route edges="-E2 -E1 E0 E7 E10"/>
    </vehicle>
    <vehicle id="veh880" depart="217.89">
        <route edges="-E13 -E11 E10"/>
    </vehicle>
    <vehicle id="veh1199" depart="219.59">
        <route edges="-E4 E0 E6"/>
    </vehicle>
    <vehicle id="veh381" depart="221.42">
        <route edges="-E13 -E12 -E8 E6"/>
    </vehicle>
    <vehicle id="veh1081" depart="222.49">
        <route edges="-E9 E10"/>
    </vehicle>
    <vehicle id="veh743" depart="223.76">
        <route edges="-E13 -E12 -E8 E7 E11 E13"/>
    </vehicle>
    <vehicle id="veh376" depart="225.92">
        <route edges="-E13 -E12 -E8 E7 E11 E13"/>
    </vehicle>
    <vehicle id="veh1141" depart="226.32">
        <route edges="-E10 E11 E13"/>
    </vehicle>
    <vehicle id="veh557" depart="232.25">
        <route edges="-E2 E3 -E8 E6"/>
    </vehicle>
    <vehicle id="veh541" depart="233.08">
        <route edges="-E13 -E12 -E8 E7 E11 E13"/>
    </vehicle>
    <vehicle id="veh239" depart="240.30">
        <route edges="-E4 E0 E7 E11 E13"/>
    </vehicle>
    <vehicle id="veh415" depart="242.75">
        <route edges="-E9 -E7 -E0 E4"/>
    </vehicle>
    <vehicle id="veh1092" depart="243.68">
        <route edges="-E13 -E12 -E8 E7 E11 E13"/>
    </vehicle>
    <vehicle id="veh1005" depart="246.70">
        <route edges="-E10 -E7 E6"/>
    </vehicle>
    <vehicle id="veh1085" depart="248.27">
        <route edges="-E9 -E7 E6"/>
    </vehicle>
    <vehicle id="veh1016" depart="250.98">
        <route edges="-E4 E0 E7 E10"/>
    </vehicle>
    <vehicle id="veh567" depart="255.12">
        <route edges="-E10 E11 -E12 -E8 E7 E10"/>
    </vehicle>
    <vehicle id="veh32" depart="256.15">
        <route edges="-E14 -E8 E6"/>
    </vehicle>
    <vehicle id="veh767" depart="256.27">
        <route edges="-E13 -E12 E14"/>
    </vehicle>
    <vehicle id="veh926" depart="257.63">
        <route edges="-E13 -E12 -E8 E6"/>
    </vehicle>
    <vehicle id="veh864" depart="260.75">
        <route edges="-E14 E12 E13"/>
    </vehicle>
    <vehicle id="veh162" depart="263.28">
        <route edges="-E4 E0 E7 E9"/>
    </vehicle>
    <vehicle id="veh659" depart="267.94">
        <route edges="-E6 -E0 E4"/>
    </vehicle>
    <vehicle id="veh668" depart="268.41">
        <route edges="-E6 E5 -E1 E0 E6"/>
    </vehicle>
    <vehicle id="veh305" depart="268.84">
        <route edges="-E4 E0 E7 E11 E13"/>
    </vehicle>
    <vehicle id="veh231" depart="269.83">
        <route edges="-E9 E10"/>
    </vehicle>
    <vehicle id="veh909" depart="271.94">
        <route edges="-E2 -E1 E0 E7 E10"/>
    </vehicle>
    <vehicle id="veh787" depart="272.88">
        <route edges="-E4 E0 E8 E14"/>
    </vehicle>
    <vehicle id="veh1148" depart="277.07">
        <route edges="-E4 E0 E6"/>
    </vehicle>
    <vehicle id="veh899" depart="277.67">
        <route edges="-E13 -E11 E9"/>
    </vehicle>
    <vehicle id="veh1185" depart="279.45">
        <route edges="-E10 E11 E13"/>
    </vehicle>
    <vehicle id="veh1137" depart="284.25">
        <route edges="-E10 E11 -E12 -E8 E7 E10"/>
    </vehicle>
    <vehicle id="veh262" depart="284.68">
        <route edges="-E14 E12 E13"/>
    </vehicle>
    <vehicle id="veh681" depart="284.75">
        <route edges="-E14 -E3 E2"/>
    </vehicle>
    <vehicle id="veh627" depart="287.31">
        <route edges="-E9 E10"/>
    </vehicle>
    <vehicle id="veh400" depart="294.86">
        <route edges="-E13 -E11 E10"/>
    </vehicle>
    <vehicle id="veh174" depart="295.71">
        <route edges="-E13 -E12 -E8 E6"/>
    </vehicle>
    <vehicle id="veh1077" depart="296.63">
        <route edges="-E10 E11 -E12 -E8 E7 E10"/>
    </vehicle>
    <vehicle id="veh1120" depart="300.24">
        <route edges="-E14 E12 E13"/>
    </vehicle>
    <vehicle id="veh833" depart="302.44">
        <route edges="-E9 E11 E13"/>
    </vehicle>
    <vehicle id="veh717" depart="303.98">
        <route edges="-E13 -E12 -E8 E6"/>
    </vehicle>
    <vehicle id="veh1044" depart="310.20">
        <route edges="-E14 -E8 E6"/>
    </vehicle>
    <vehicle id="veh486" depart="312.63">
        <route edges="-E9 -E7 E5 E2"/>
    </vehicle>
    <vehicle id="veh1139" depart="316.71">
        <route edges="-E9 E11 E13"/>
    </vehicle>
    <vehicle id="veh728" depart="316.74">
        <route edges="-E2 E3 E12 -E11 E9"/>
    </vehicle>
    <vehicle id="veh451" depart="317.06">
        <route edges="-E10 -E7 -E0 E4"/>
    </vehicle>
    <vehicle id="veh343" depart="324.40">
        <route edges="-E13 -E11 E9"/>
    </vehicle>
    <vehicle id="veh388" depart="324.99">
        <route edges="-E10 E11 -E12 -E8 E7 E10"/>
    </vehicle>
    <vehicle id="veh1089" depart="325.21">
        <route edges="-E2 -E1 E0 E5 E2"/>
    </vehicle>
    <vehicle id="veh720" depart="325.72">
        <route edges="-E9 -E7 E5 E2"/>
    </vehicle>
    <vehicle id="veh9" depart="326.57">
        <route edges="-E13 -E12 -E8 E6"/>
    </vehicle>
    <vehicle id="veh793" depart="328.13">
        <route edges="-E10 E11 E13"/>
    </vehicle>
    <vehicle id="veh572" depart="328.70">
        <route edges="-E13 -E12 -E8 E6"/>
    </vehicle>
    <vehicle id="veh1090" depart="333.33">
        <route edges="-E2 -E1 E4"/>
    </vehicle>
    <vehicle id="veh623" depart="334.45">
        <route edges="-E4 E0 E7 E11 E13"/>
    </vehicle>
    <vehicle id="veh270" depart="341.38">
        <route edges="-E2 E3 E12 E13"/>
    </vehicle>
    <vehicle id="veh740" depart="342.35">
        <route edges="-E9 E10"/>
    </vehicle>
    <vehicle id="veh110" depart="342.65">
        <route edges="-E9 E10"/>
    </vehicle>
    <vehicle id="veh964" depart="343.54">
        <route edges="-E2 E3 E12 E13"/>
    </vehicle>
    <vehicle id="veh628" depart="343.83">
        <route edges="-E9 E11 E13"/>
    </vehicle>
    <vehicle id="veh818" depart="348.71">
        <route edges="-E2 E3 E12 E13"/>
    </vehicle>
    <vehicle id="veh722" depart="352.82">
        <route edges="-E13 -E12 -E8 E7 E11 E13"/>
    </vehicle>
    <vehicle id="veh14" depart="359.10">
        <route edges="-E14 E12 -E11 E9"/>
    </vehicle>
    <vehicle id="veh1028" depart="363.63">
        <route edges="-E2 E3 E12 E13"/>
    </vehicle>
    <vehicle id="veh1193" depart="365.02">
        <route edges="-E6 E5 -E1 E0 E6"/>
    </vehicle>
    <vehicle id="veh564" depart="374.65">
        <route edges="-E14 -E8 -E0 E4"/>
    </vehicle>
    <vehicle id="veh58" depart="376.20">
        <route edges="-E9 E11 -E12 -E8 E7 E9"/>
    </vehicle>
    <vehicle id="veh657" depart="379.07">
        <route edges="-E10 -E7 -E0 E4"/>
    </vehicle>
    <vehicle id="veh114" depart="384.42">
        <route edges="-E2 E3 -E8 E6"/>
    </vehicle>
    <vehicle id="veh466" depart="388.57">
        <route edges="-E14 -E8 E6"/>
    </vehicle>
    <vehicle id="veh939" depart="389.38">
        <route edges="-E13 -E11 E10"/>
    </vehicle>
    <vehicle id="veh318" depart="394.01">
        <route edges="-E2 E3 -E8 E6"/>
    </vehicle>
    <vehicle id="veh128" depart="394.94">
        <route edges="-E14 -E8 E5 E3 E14"/>
    </vehicle>
    <vehicle id="veh737" depart="398.32">
        <route edges="-E2 -E1 E0 E7 E10"/>
    </vehicle>
    <vehicle id="veh509" depart="408.30">
        <route edges="-E13 -E11 E10"/>
    </vehicle>
    <vehicle id="veh507" depart="409.22">
        <route edges="-E6 E7 E9"/>
    </vehicle>
    <vehicle id="veh875" depart="411.09">
        <route edges="-E14 -E8 E7 E10"/>
    </vehicle>
    <vehicle id="veh44" depart="418.72">
        <route edges="-E4 E0 E5 -E1 E4"/>
    </vehicle>
    <vehicle id="veh142" depart="418.82">
        <route edges="-E14 -E3 E2"/>
    </vehicle>
    <vehicle id="veh493" depart="420.50">
        <route edges="-E2 E3 E12 E13"/>
    </vehicle>
    <vehicle id="veh454" depart="423.42">
        <route edges="-E2 -E1 E0 E7 E10"/>
    </vehicle>
    <vehicle id="veh819" depart="425.72">
        <route edges="-E14 E12 E13"/>
    </vehicle>
    <vehicle id="veh620" depart="426.47">
        <route edges="-E4 E0 E6"/>
    </vehicle>
    <vehicle id="veh5" depart="428.20">
        <route edges="-E6 E5 E2"/>
    </vehicle>
    <vehicle id="veh1176" depart="429.61">
        <route edges="-E4 E0 E7 E10"/>
    </vehicle>
    <vehicle id="veh1030" depart="430.00">
        <route edges="-E13 -E12 -E8 E7 E11 E13"/>
    </vehicle>
    <vehicle id="veh121" depart="430.89">
        <route edges="-E13 -E11 E10"/>
    </vehicle>
    <vehicle id="veh951" depart="434.18">
        <route edges="-E9 -E7 E5 E2"/>
    </vehicle>
    <vehicle id="veh98" depart="434.53">
        <route edges="-E6 E8 E14"/>
    </vehicle>
    <vehicle id="veh1140" depart="437.00">
        <route edges="-E13 -E12 -E3 E2"/>
    </vehicle>
    <vehicle id="veh220" depart="437.61">
        <route edges="-E10 -E7 E6"/>
    </vehicle>
    <vehicle id="veh141" depart="438.50">
        <route edges="-E9 -E7 E5 E2"/>
    </vehicle>
    <vehicle id="veh368" depart="447.97">
        <route edges="-E14 -E8 E6"/>
    </vehicle>
    <vehicle id="veh422" depart="448.47">
        <route edges="-E6 E7 E10"/>
    </vehicle>
    <vehicle id="veh585" depart="449.75">
        <route edges="-E6 E5 -E1 E0 E6"/>
    </vehicle>
    <vehicle id="veh45" depart="451.44">
        <route edges="-E4 E0 E7 E10"/>
    </vehicle>
    <vehicle id="veh1014" depart="453.84">
        <route edges="-E13 -E11 E10"/>
    </vehicle>
    <vehicle id="veh312" depart="455.54">
        <route edges="-E2 E3 E14"/>
    </vehicle>
    <vehicle id="veh843" depart="457.68">
        <route edges="-E10 -E7 E6"/>
    </vehicle>
    <vehicle id="veh57" depart="459.07">
        <route edges="-E6 E5 -E1 E0 E6"/>
    </vehicle>
    <vehicle id="veh741" depart="460.45">
        <route edges="-E9 -E7 E6"/>
    </vehicle>
    <vehicle id="veh573" depart="460.51">
        <route edges="-E9 E10"/>
    </vehicle>
    <vehicle id="veh688" depart="462.15">
        <route edges="-E13 -E11 E10"/>
    </vehicle>
    <vehicle id="veh1035" depart="464.97">
        <route edges="-E14 -E3 E2"/>
    </vehicle>
    <vehicle id="veh1149" depart="466.71">
        <route edges="-E4 E0 E7 E10"/>
    </vehicle>
    <vehicle id="veh673" depart="467.13">
        <route edges="-E13 -E12 -E3 -E1 E4"/>
    </vehicle>
    <vehicle id="veh804" depart="474.57">
        <route edges="-E14 -E8 E7 E10"/>
    </vehicle>
    <vehicle id="veh905" depart="478.66">
        <route edges="-E14 -E8 E6"/>
    </vehicle>
    <vehicle id="veh1118" depart="482.02">
        <route edges="-E10 E11 -E12 -E8 E7 E10"/>
    </vehicle>
    <vehicle id="veh120" depart="485.66">
        <route edges="-E2 E3 E12 E13"/>
    </vehicle>
    <vehicle id="veh687" depart="489.18">
        <route edges="-E10 E11 E13"/>
    </vehicle>
    <vehicle id="veh470" depart="493.58">
        <route edges="-E9 -E7 E6"/>
    </vehicle>
    <vehicle id="veh115" depart="495.72">
        <route edges="-E13 -E11 E10"/>
    </vehicle>
    <vehicle id="veh654" depart="499.61">
        <route edges="-E10 E11 E13"/>
    </vehicle>
    <vehicle id="veh775" depart="500.67">
        <route edges="-E13 -E11 E10"/>
    </vehicle>
    <vehicle id="veh612" depart="504.24">
        <route edges="-E6 E5 E2"/>
    </vehicle>
    <vehicle id="veh411" depart="505.00">
        <route edges="-E6 E5 -E1 E0 E6"/>
    </vehicle>
    <vehicle id="veh747" depart="507.67">
        <route edges="-E6 E8 E14"/>
    </vehicle>
    <vehicle id="veh244" depart="511.70">
        <route edges="-E2 E3 -E8 E6"/>
    </vehicle>
    <vehicle id="veh1006" depart="512.84">
        <route edges="-E2 -E1 E0 E7 E10"/>
    </vehicle>
    <vehicle id="veh385" depart="519.57">
        <route edges="-E14 E12 E13"/>
    </vehicle>
    <vehicle id="veh77" depart="519.72">
        <route edges="-E2 E3 E12 E13"/>
    </vehicle>
    <vehicle id="veh938" depart="520.83">
        <route edges="-E2 E3 E12 E13"/>
    </vehicle>
    <vehicle id="veh106" depart="527.95">
        <route edges="-E9 E10"/>
    </vehicle>
    <vehicle id="veh1060" depart="528.78">
        <route edges="-E13 -E12 -E8 E6"/>
    </vehicle>
    <vehicle id="veh1195" depart="536.14">
        <route edges="-E10 E11 -E12 -E8 E7 E10"/>
    </vehicle>
    <vehicle id="veh500" depart="541.48">
        <route edges="-E4 E0 E6"/>
    </vehicle>
    <vehicle id="veh136" depart="544.92">
        <route edges="-E4 E0 E6"/>
    </vehicle>
    <vehicle id="veh578" depart="545.14">
        <route edges="-E14 -E8 E5 E3 E14"/>
    </vehicle>
    <vehicle id="veh92" depart="546.22">
        <route edges="-E2 -E1 E0 E7 E10"/>
    </vehicle>
    <vehicle id="veh634" depart="547.71">
        <route edges="-E10 -E7 E6"/>
    </vehicle>
    <vehicle id="veh4" depart="549.15">
        <route edges="-E14 -E8 E7 E10"/>
    </vehicle>
    <vehicle id="veh788" depart="552.76">
        <route edges="-E14 -E8 -E0 E4"/>
    </vehicle>
    <vehicle id="veh303" depart="563.44">
        <route edges="-E10 -E7 E6"/>
    </vehicle>
    <vehicle id="veh334" depart="565.12">
        <route edges="-E9 E11 E13"/>
    </vehicle>
    <vehicle id="veh891" depart="570.37">
        <route edges="-E13 -E12 -E8 E6"/>
    </vehicle>
    <vehicle id="veh111" depart="570.52">
        <route edges="-E9 E11 -E12 -E8 E7 E9"/>
    </vehicle>
    <vehicle id="veh447" depart="572.88">
        <route edges="-E13 -E11 E10"/>
    </vehicle>
    <vehicle id="veh494" depart="574.08">
        <route edges="-E2 E3 E12 E13"/>
    </vehicle>
    <vehicle id="veh1084" depart="576.11">
        <route edges="-E9 -E7 E6"/>
    </vehicle>
    <vehicle id="veh330" depart="578.36">
        <route edges="-E9 -E7 E6"/>
    </vehicle>
    <vehicle id="veh837" depart="580.15">
        <route edges="-E6 E8 E12 E13"/>
    </vehicle>
    <vehicle id="veh347" depart="580.70">
        <route edges="-E10 -E7 E5 E2"/>
    </vehicle>
    <vehicle id="veh12" depart="582.99">
        <route edges="-E9 E10"/>
    </vehicle>
    <vehicle id="veh757" depart="587.10">
        <route edges="-E6 E7 E10"/>
    </vehicle>
    <vehicle id="veh528" depart="596.15">
        <route edges="-E2 E3 -E8 E6"/>
    </vehicle>
    <vehicle id="veh28" depart="599.97">
        <route edges="-E13 -E11 E10"/>
    </vehicle>
    <vehicle id="veh473" depart="602.15">
        <route edges="-E6 E8 E12 E13"/>
    </vehicle>
    <vehicle id="veh958" depart="607.93">
        <route edges="-E4 E0 E7 E9"/>
    </vehicle>
    <vehicle id="veh985" depart="607.96">
        <route edges="-E2 E3 -E8 E6"/>
    </vehicle>
    <vehicle id="veh1126" depart="608.70">
        <route edges="-E6 E8 E12 E13"/>
    </vehicle>
    <vehicle id="veh96" depart="609.58">
        <route edges="-E14 E12 E13"/>
    </vehicle>
    <vehicle id="veh1145" depart="610.70">
        <route edges="-E4 E0 E7 E10"/>
    </vehicle>
    <vehicle id="veh1164" depart="612.19">
        <route edges="-E6 E8 E12 E13"/>
    </vehicle>
    <vehicle id="veh126" depart="622.55">
        <route edges="-E13 -E12 -E3 -E1 E4"/>
    </vehicle>
    <vehicle id="veh413" depart="622.67">
        <route edges="-E13 -E12 -E8 E7 E11 E13"/>
    </vehicle>
    <vehicle id="veh1106" depart="622.87">
        <route edges="-E13 -E11 E10"/>
    </vehicle>
    <vehicle id="veh835" depart="626.68">
        <route edges="-E4 E0 E7 E10"/>
    </vehicle>
    <vehicle id="veh275" depart="629.20">
        <route edges="-E2 -E1 E0 E7 E10"/>
    </vehicle>
    <vehicle id="veh666" depart="631.11">
        <route edges="-E6 E5 -E1 E0 E6"/>
    </vehicle>
    <vehicle id="veh1053" depart="632.19">
        <route edges="-E10 -E7 E6"/>
    </vehicle>
    <vehicle id="veh513" depart="634.18">
        <route edges="-E6 E7 E10"/>
    </vehicle>
    <vehicle id="veh426" depart="636.12">
        <route edges="-E14 E12 E13"/>
    </vehicle>
    <vehicle id="veh441" depart="636.86">
        <route edges="-E13 -E11 E10"/>
    </vehicle>
    <vehicle id="veh786" depart="639.72">
        <route edges="-E2 -E1 E0 E7 E10"/>
    </vehicle>
    <vehicle id="veh921" depart="641.61">
        <route edges="-E4 E0 E6"/>
    </vehicle>
    <vehicle id="veh726" depart="642.30">
        <route edges="-E14 E12 E13"/>
    </vehicle>
    <vehicle id="veh503" depart="643.03">
        <route edges="-E13 -E11 E10"/>
    </vehicle>
    <vehicle id="veh407" depart="645.25">
        <route edges="-E13 -E11 E10"/>
    </vehicle>
    <vehicle id="veh537" depart="648.50">
        <route edges="-E9 E10"/>
    </vehicle>
    <vehicle id="veh467" depart="650.92">
        <route edges="-E13 -E11 E10"/>
    </vehicle>
    <vehicle id="veh178" depart="651.18">
        <route edges="-E14 E12 E13"/>
    </vehicle>
    <vehicle id="veh901" depart="653.83">
        <route edges="-E14 -E8 E7 E10"/>
    </vehicle>
    <vehicle id="veh615" depart="655.05">
        <route edges="-E2 E3 -E8 E6"/>
    </vehicle>
    <vehicle id="veh210" depart="658.35">
        <route edges="-E13 -E12 -E8 E6"/>
    </vehicle>
    <vehicle id="veh382" depart="658.87">
        <route edges="-E13 -E12 E14"/>
    </vehicle>
    <vehicle id="veh73" depart="663.16">
        <route edges="-E10 E11 -E12 -E8 E7 E10"/>
    </vehicle>
    <vehicle id="veh297" depart="667.32">
        <route edges="-E9 E11 -E12 E14"/>
    </vehicle>
    <vehicle id="veh327" depart="669.56">
        <route edges="-E2 E3 -E8 E6"/>
    </vehicle>
    <vehicle id="veh172" depart="671.27">
        <route edges="-E9 -E7 E6"/>
    </vehicle>
    <vehicle id="veh379" depart="674.12">
        <route edges="-E6 E8 E12 E13"/>
    </vehicle>
    <vehicle id="veh883" depart="674.64">
        <route edges="-E6 -E0 E4"/>
    </vehicle>
    <vehicle id="veh825" depart="675.90">
        <route edges="-E6 E5 E2"/>
    </vehicle>
    <vehicle id="veh361" depart="676.22">
        <route edges="-E10 -E7 E6"/>
    </vehicle>
    <vehicle id="veh194" depart="677.31">
        <route edges="-E13 -E11 E9"/>
    </vehicle>
    <vehicle id="veh217" depart="678.03">
        <route edges="-E6 E5 -E1 E0 E6"/>
    </vehicle>
    <vehicle id="veh457" depart="679.30">
        <route edges="-E6 E7 E10"/>
    </vehicle>
    <vehicle id="veh656" depart="680.20">
        <route edges="-E6 E5 E2"/>
    </vehicle>
    <vehicle id="veh920" depart="682.09">
        <route edges="-E4 E0 E7 E11 E13"/>
    </vehicle>
    <vehicle id="veh159" depart="682.44">
        <route edges="-E9 E11 E13"/>
    </vehicle>
    <vehicle id="veh17" depart="683.92">
        <route edges="-E2 -E1 E0 E7 E10"/>
    </vehicle>
    <vehicle id="veh13" depart="684.28">
        <route edges="-E14 E12 E13"/>
    </vehicle>
    <vehicle id="veh1031" depart="684.65">
        <route edges="-E6 E7 E10"/>
    </vehicle>
    <vehicle id="veh94" depart="688.56">
        <route edges="-E6 E7 E9"/>
    </vehicle>
    <vehicle id="veh487" depart="690.17">
        <route edges="-E9 E11 E13"/>
    </vehicle>
    <vehicle id="veh243" depart="694.74">
        <route edges="-E13 -E12 -E3 E2"/>
    </vehicle>
    <vehicle id="veh326" depart="695.51">
        <route edges="-E4 E0 E7 E11 E13"/>
    </vehicle>
    <vehicle id="veh555" depart="706.03">
        <route edges="-E9 -E7 -E0 E4"/>
    </vehicle>
    <vehicle id="veh1190" depart="708.48">
        <route edges="-E2 -E1 E0 E7 E10"/>
    </vehicle>
    <vehicle id="veh425" depart="709.45">
        <route edges="-E10 E11 -E12 -E8 E7 E10"/>
    </vehicle>
    <vehicle id="veh328" depart="711.58">
        <route edges="-E14 E12 E13"/>
    </vehicle>
    <vehicle id="veh827" depart="711.93">
        <route edges="-E13 -E12 -E8 E7 E11 E13"/>
    </vehicle>
    <vehicle id="veh354" depart="713.99">
        <route edges="-E6 E7 E10"/>
    </vehicle>
    <vehicle id="veh763" depart="719.49">
        <route edges="-E14 -E3 E2"/>
    </vehicle>
    <vehicle id="veh700" depart="719.63">
        <route edges="-E9 -E7 E6"/>
    </vehicle>
    <vehicle id="veh2" depart="722.12">
        <route edges="-E2 E3 E12 E13"/>
    </vehicle>
    <vehicle id="veh265" depart="725.58">
        <route edges="-E6 E7 E10"/>
    </vehicle>
    <vehicle id="veh205" depart="730.65">
        <route edges="-E6 E5 -E1 E0 E6"/>
    </vehicle>
    <vehicle id="veh1186" depart="733.29">
        <route edges="-E9 E10"/>
    </vehicle>
    <vehicle id="veh714" depart="734.09">
        <route edges="-E2 E3 -E8 E6"/>
    </vehicle>
    <vehicle id="veh963" depart="735.06">
        <route edges="-E13 -E12 E14"/>
    </vehicle>
    <vehicle id="veh64" depart="736.62">
        <route edges="-E14 -E8 E6"/>
    </vehicle>
    <vehicle id="veh568" depart="740.02">
        <route edges="-E10 E11 -E12 -E8 E7 E10"/>
    </vehicle>
    <vehicle id="veh449" depart="743.99">
        <route edges="-E4 E0 E7 E11 E13"/>
    </vehicle>
    <vehicle id="veh160" depart="752.76">
        <route edges="-E14 -E8 E6"/>
    </vehicle>
    <vehicle id="veh1154" depart="758.61">
        <route edges="-E13 -E12 -E3 E2"/>
    </vehicle>
    <vehicle id="veh171" depart="759.17">
        <route edges="-E10 E11 -E12 -E8 E7 E10"/>
    </vehicle>
    <vehicle id="veh1184" depart="763.46">
        <route edges="-E6 E8 E12 E13"/>
    </vehicle>
    <vehicle id="veh48" depart="763.71">
        <route edges="-E9 -E7 E6"/>
    </vehicle>
    <vehicle id="veh166" depart="764.13">
        <route edges="-E2 E3 E12 E13"/>
    </vehicle>
    <vehicle id="veh619" depart="764.80">
        <route edges="-E9 E10"/>
    </vehicle>
    <vehicle id="veh670" depart="767.91">
        <route edges="-E9 E10"/>
    </vehicle>
    <vehicle id="veh790" depart="769.96">
        <route edges="-E9 -E7 E5 E2"/>
    </vehicle>
    <vehicle id="veh561" depart="770.61">
        <route edges="-E14 -E8 E7 E10"/>
    </vehicle>
    <vehicle id="veh351" depart="771.38">
        <route edges="-E4 E0 E6"/>
    </vehicle>
    <vehicle id="veh621" depart="776.07">
        <route edges="-E6 E5 -E1 E0 E6"/>