<?xml version="1.0" encoding="UTF-8"?>

<!-- generated on 2026-06-13T16:47:50.474002+01:00 by Eclipse SUMO duarouter 1.26.0
<duarouterConfiguration xmlns:xsi="http://www.w3.org/2001/XMLSchema-instance" xsi:noNamespaceSchemaLocation="http://sumo.dlr.de/xsd/duarouterConfiguration.xsd">

    <input>
        <net-file value="C:\Users\rondo\Desktop\Sys auto projeekt\src\City_map_2\city2.net.xml"/>
        <route-files value="C:\Users\rondo\AppData\Local\Temp\city2_hard_train_2.trips.xml"/>
    </input>

    <output>
        <output-file value="C:\Users\rondo\Desktop\Sys auto projeekt\src\City_map_2\city2_hard_train_2.rou.xml"/>
    </output>

    <report>
        <no-warnings value="true"/>
        <ignore-errors value="true"/>
    </report>

    <random_number>
        <seed value="1002"/>
    </random_number>

</duarouterConfiguration>
-->

<routes xmlns:xsi="http://www.w3.org/2001/XMLSchema-instance" xsi:noNamespaceSchemaLocation="http://sumo.dlr.de/xsd/routes_file.xsd">
    <vehicle id="veh62" depart="28.92">
        <route edges="-E14 E12 E13"/>
    </vehicle>
    <vehicle id="veh602" depart="112.77">
        <route edges="-E2 -E1 E0 E7 E10"/>
    </vehicle>
    <vehicle id="veh420" depart="117.90">
        <route edges="-E2 E3 E12 E13"/>
    </vehicle>
    <vehicle id="veh853" depart="119.15">
        <route edges="-E9 E11 E13"/>
    </vehicle>
    <vehicle id="veh1636" depart="120.18">
        <route edges="-E4 E0 E7 E11 E13"/>
    </vehicle>
    <vehicle id="veh788" depart="138.17">
        <route edges="-E13 -E12 -E8 E6"/>
    </vehicle>
    <vehicle id="veh943" depart="139.10">
        <route edges="-E2 E3 E12 E13"/>
    </vehicle>
    <vehicle id="veh1524" depart="161.24">
        <route edges="-E4 E0 E7 E10"/>
    </vehicle>
    <vehicle id="veh1603" depart="162.35">
        <route edges="-E13 -E12 E14"/>
    </vehicle>
    <vehicle id="veh428" depart="165.89">
        <route edges="-E6 E8 E12 E13"/>
    </vehicle>
    <vehicle id="veh333" depart="178.02">
        <route edges="-E4 E0 E6"/>
    </vehicle>
    <vehicle id="veh1679" depart="184.75">
        <route edges="-E13 -E11 E10"/>
    </vehicle>
    <vehicle id="veh519" depart="187.75">
        <route edges="-E2 E3 -E8 E6"/>
    </vehicle>
    <vehicle id="veh167" depart="213.81">
        <route edges="-E4 E0 E7 E11 E13"/>
    </vehicle>
    <vehicle id="veh629" depart="219.42">
        <route edges="-E9 -E7 E6"/>
    </vehicle>
    <vehicle id="veh1126" depart="231.15">
        <route edges="-E14 -E8 E6"/>
    </vehicle>
    <vehicle id="veh857" depart="232.11">
        <route edges="-E4 E0 E7 E10"/>
    </vehicle>
    <vehicle id="veh304" depart="245.51">
        <route edges="-E14 -E8 E7 E10"/>
    </vehicle>
    <vehicle id="veh443" depart="255.91">
        <route edges="-E13 -E11 E10"/>
    </vehicle>
    <vehicle id="veh1894" depart="256.79">
        <route edges="-E13 -E12 -E8 E7 E11 E13"/>
    </vehicle>
    <vehicle id="veh108" depart="274.32">
        <route edges="-E9 -E7 -E0 E4"/>
    </vehicle>
    <vehicle id="veh599" depart="278.62">
        <route edges="-E9 E10"/>
    </vehicle>
    <vehicle id="veh1175" depart="287.38">
        <route edges="-E9 E11 -E12 E14"/>
    </vehicle>
    <vehicle id="veh956" depart="287.57">
        <route edges="-E2 -E1 E0 E7 E10"/>
    </vehicle>
    <vehicle id="veh734" depart="289.34">
        <route edges="-E4 E0 E6"/>
    </vehicle>
    <vehicle id="veh163" depart="293.90">
        <route edges="-E14 -E8 E7 E10"/>
    </vehicle>
    <vehicle id="veh562" depart="298.49">
        <route edges="-E10 E11 E13"/>
    </vehicle>
    <vehicle id="veh107" depart="299.71">
        <route edges="-E9 E11 E13"/>
    </vehicle>
    <vehicle id="veh964" depart="301.87">
        <route edges="-E13 -E11 E10"/>
    </vehicle>
    <vehicle id="veh1626" depart="303.30">
        <route edges="-E14 E12 E13"/>
    </vehicle>
    <vehicle id="veh286" depart="314.90">
        <route edges="-E2 E3 E12 E13"/>
    </vehicle>
    <vehicle id="veh808" depart="315.63">
        <route edges="-E14 -E8 E7 E10"/>
    </vehicle>
    <vehicle id="veh1732" depart="325.40">
        <route edges="-E2 E3 E12 E13"/>
    </vehicle>
    <vehicle id="veh411" depart="326.20">
        <route edges="-E6 E7 E10"/>
    </vehicle>
    <vehicle id="veh93" depart="326.54">
        <route edges="-E9 E11 E13"/>
    </vehicle>
    <vehicle id="veh132" depart="329.09">
        <route edges="-E13 -E12 -E8 E6"/>
    </vehicle>
    <vehicle id="veh778" depart="334.80">
        <route edges="-E9 E11 E13"/>
    </vehicle>
    <vehicle id="veh833" depart="344.11">
        <route edges="-E13 -E12 -E8 E7 E11 E13"/>
    </vehicle>
    <vehicle id="veh685" depart="348.38">
        <route edges="-E13 -E12 -E8 E6"/>
    </vehicle>
    <vehicle id="veh438" depart="351.95">
        <route edges="-E4 E0 E7 E10"/>
    </vehicle>
    <vehicle id="veh1742" depart="355.26">
        <route edges="-E4 E0 E6"/>
    </vehicle>
    <vehicle id="veh453" depart="361.62">
        <route edges="-E2 E3 -E8 E6"/>
    </vehicle>
    <vehicle id="veh31" depart="363.13">
        <route edges="-E2 -E1 E0 E7 E10"/>
    </vehicle>
    <vehicle id="veh1326" depart="371.98">
        <route edges="-E10 E11 E13"/>
    </vehicle>
    <vehicle id="veh1448" depart="376.94">
        <route edges="-E2 E3 -E8 E6"/>
    </vehicle>
    <vehicle id="veh644" depart="378.35">
        <route edges="-E9 -E7 E6"/>
    </vehicle>
    <vehicle id="veh1323" depart="382.90">
        <route edges="-E14 E12 E13"/>
    </vehicle>
    <vehicle id="veh281" depart="384.61">
        <route edges="-E4 E0 E7 E11 E13"/>
    </vehicle>
    <vehicle id="veh1541" depart="384.66">
        <route edges="-E10 E11 E13"/>
    </vehicle>
    <vehicle id="veh1123" depart="392.74">
        <route edges="-E14 E12 E13"/>
    </vehicle>
    <vehicle id="veh1205" depart="396.20">
        <route edges="-E13 -E12 -E8 E7 E11 E13"/>
    </vehicle>
    <vehicle id="veh71" depart="407.45">
        <route edges="-E9 E11 E13"/>
    </vehicle>
    <vehicle id="veh1290" depart="417.67">
        <route edges="-E6 E8 E12 E13"/>
    </vehicle>
    <vehicle id="veh1872" depart="419.98">
        <route edges="-E6 E8 E12 E13"/>
    </vehicle>
    <vehicle id="veh1102" depart="420.27">
        <route edges="-E13 -E12 -E8 E7 E11 E13"/>
    </vehicle>
    <vehicle id="veh826" depart="423.08">
        <route edges="-E13 -E12 -E8 E6"/>
    </vehicle>
    <vehicle id="veh992" depart="425.18">
        <route edges="-E4 E0 E6"/>
    </vehicle>
    <vehicle id="veh1332" depart="431.99">
        <route edges="-E4 E0 E6"/>
    </vehicle>
    <vehicle id="veh1063" depart="433.52">
        <route edges="-E9 E11 E13"/>
    </vehicle>
    <vehicle id="veh1453" depart="440.64">
        <route edges="-E4 E0 E7 E11 E13"/>
    </vehicle>
    <vehicle id="veh1650" depart="441.21">
        <route edges="-E13 -E12 E14"/>
    </vehicle>
    <vehicle id="veh1659" depart="446.55">
        <route edges="-E6 E5 E2"/>
    </vehicle>
    <vehicle id="veh750" depart="447.37">
        <route edges="-E13 -E11 E10"/>
    </vehicle>
    <vehicle id="veh1676" depart="448.08">
        <route edges="-E2 E3 E12 E13"/>
    </vehicle>
    <vehicle id="veh1238" depart="459.45">
        <route edges="-E9 E10"/>
    </vehicle>
    <vehicle id="veh593" depart="459.62">
        <route edges="-E10 E11 -E12 -E8 E7 E10"/>
    </vehicle>
    <vehicle id="veh953" depart="460.12">
        <route edges="-E10 E11 E13"/>
    </vehicle>
    <vehicle id="veh1408" depart="460.71">
        <route edges="-E2 -E1 E0 E7 E10"/>
    </vehicle>
    <vehicle id="veh1532" depart="464.60">
        <route edges="-E2 -E1 E0 E7 E10"/>
    </vehicle>
    <vehicle id="veh1973" depart="471.32">
        <route edges="-E2 -E1 E0 E7 E10"/>
    </vehicle>
    <vehicle id="veh1237" depart="473.48">
        <route edges="-E14 -E8 E6"/>
    </vehicle>
    <vehicle id="veh1574" depart="475.66">
        <route edges="-E6 E7 E10"/>
    </vehicle>
    <vehicle id="veh902" depart="476.46">
        <route edges="-E10 E11 E13"/>
    </vehicle>
    <vehicle id="veh1888" depart="478.15">
        <route edges="-E14 -E8 E7 E10"/>
    </vehicle>
    <vehicle id="veh439" depart="478.54">
        <route edges="-E9 E10"/>
    </vehicle>
    <vehicle id="veh594" depart="480.60">
        <route edges="-E2 E3 -E8 E6"/>
    </vehicle>
    <vehicle id="veh584" depart="484.35">
        <route edges="-E4 E0 E7 E9"/>
    </vehicle>
    <vehicle id="veh218" depart="493.90">
        <route edges="-E4 E0 E5 -E1 E4"/>
    </vehicle>
    <vehicle id="veh1734" depart="496.58">
        <route edges="-E13 -E12 -E8 E7 E11 E13"/>
    </vehicle>
    <vehicle id="veh1928" depart="496.96">
        <route edges="-E9 E10"/>
    </vehicle>
    <vehicle id="veh672" depart="502.13">
        <route edges="-E9 -E7 E6"/>
    </vehicle>
    <vehicle id="veh337" depart="507.55">
        <route edges="-E13 -E12 -E8 E6"/>
    </vehicle>
    <vehicle id="veh711" depart="508.62">
        <route edges="-E4 E0 E7 E10"/>
    </vehicle>
    <vehicle id="veh1045" depart="515.78">
        <route edges="-E10 -E7 E6"/>
    </vehicle>
    <vehicle id="veh1357" depart="518.62">
        <route edges="-E9 E10"/>
    </vehicle>
    <vehicle id="veh1055" depart="518.83">
        <route edges="-E4 E0 E6"/>
    </vehicle>
    <vehicle id="veh1059" depart="519.37">
        <route edges="-E2 -E1 E4"/>
    </vehicle>
    <vehicle id="veh1366" depart="522.03">
        <route edges="-E2 -E1 E0 E7 E10"/>
    </vehicle>
    <vehicle id="veh1612" depart="523.69">
        <route edges="-E2 -E1 E0 E7 E10"/>
    </vehicle>
    <vehicle id="veh1344" depart="525.97">
        <route edges="-E10 E11 E13"/>
    </vehicle>
    <vehicle id="veh1502" depart="531.05">
        <route edges="-E9 -E7 E6"/>
    </vehicle>
    <vehicle id="veh891" depart="532.55">
        <route edges="-E2 E3 -E8 E6"/>
    </vehicle>
    <vehicle id="veh284" depart="533.11">
        <route edges="-E13 -E12 -E8 E6"/>
    </vehicle>
    <vehicle id="veh1169" depart="533.92">
        <route edges="-E2 E3 -E8 E6"/>
    </vehicle>
    <vehicle id="veh1748" depart="533.96">
        <route edges="-E10 E11 E13"/>
    </vehicle>
    <vehicle id="veh280" depart="534.32">
        <route edges="-E14 E12 E13"/>
    </vehicle>
    <vehicle id="veh1768" depart="534.95">
        <route edges="-E2 E3 -E8 E6"/>
    </vehicle>
    <vehicle id="veh122" depart="537.26">
        <route edges="-E2 E3 -E8 E6"/>
    </vehicle>
    <vehicle id="veh1599" depart="537.30">
        <route edges="-E14 E12 E13"/>
    </vehicle>
    <vehicle id="veh1803" depart="539.86">
        <route edges="-E9 E10"/>
    </vehicle>
    <vehicle id="veh1752" depart="543.75">
        <route edges="-E9 E10"/>
    </vehicle>
    <vehicle id="veh783" depart="544.15">
        <route edges="-E2 E3 E12 E13"/>
    </vehicle>
    <vehicle id="veh1846" depart="545.65">
        <route edges="-E9 E10"/>
    </vehicle>
    <vehicle id="veh1917" depart="549.05">
        <route edges="-E9 E10"/>
    </vehicle>
    <vehicle id="veh1944" depart="549.60">
        <route edges="-E4 E0 E6"/>
    </vehicle>
    <vehicle id="veh1618" depart="550.72">
        <route edges="-E13 -E12 -E8 E7 E11 E13"/>
    </vehicle>
    <vehicle id="veh1363" depart="557.25">
        <route edges="-E4 E0 E7 E10"/>
    </vehicle>
    <vehicle id="veh1009" depart="559.06">
        <route edges="-E13 -E12 -E8 E6"/>
    </vehicle>
    <vehicle id="veh556" depart="562.97">
        <route edges="-E10 E11 -E12 -E8 E7 E10"/>
    </vehicle>
    <vehicle id="veh265" depart="564.61">
        <route edges="-E2 -E1 E4"/>
    </vehicle>
    <vehicle id="veh1478" depart="566.36">
        <route edges="-E14 E12 -E11 E9"/>
    </vehicle>
    <vehicle id="veh1307" depart="567.39">
        <route edges="-E6 E5 -E1 E0 E6"/>
    </vehicle>
    <vehicle id="veh864" depart="567.51">
        <route edges="-E10 E11 -E12 -E8 E7 E10"/>
    </vehicle>
    <vehicle id="veh1015" depart="571.98">
        <route edges="-E9 -E7 E5 E2"/>
    </vehicle>
    <vehicle id="veh1570" depart="572.70">
        <route edges="-E2 -E1 E0 E5 E2"/>
    </vehicle>
    <vehicle id="veh1547" depart="572.87">
        <route edges="-E4 E0 E6"/>
    </vehicle>
    <vehicle id="veh577" depart="573.17">
        <route edges="-E2 -E1 E0 E7 E10"/>
    </vehicle>
    <vehicle id="veh991" depart="574.78">
        <route edges="-E4 E0 E6"/>
    </vehicle>
    <vehicle id="veh1271" depart="574.96">
        <route edges="-E9 -E7 E6"/>
    </vehicle>
    <vehicle id="veh1677" depart="575.23">
        <route edges="-E9 -E7 E6"/>
    </vehicle>
    <vehicle id="veh858" depart="576.00">
        <route edges="-E4 E0 E7 E9"/>
    </vehicle>
    <vehicle id="veh45" depart="578.03">
        <route edges="-E2 -E1 E4"/>
    </vehicle>
    <vehicle id="veh349" depart="578.35">
        <route edges="-E2 E3 E12 E13"/>
    </vehicle>
    <vehicle id="veh935" depart="583.88">
        <route edges="-E14 -E8 E7 E10"/>
    </vehicle>
    <vehicle id="veh1190" depart="584.67">
        <route edges="-E4 E1 E2"/>
    </vehicle>
    <vehicle id="veh906" depart="585.63">
        <route edges="-E6 E7 E10"/>
    </vehicle>
    <vehicle id="veh360" depart="603.93">
        <route edges="-E13 -E11 E10"/>
    </vehicle>
    <vehicle id="veh231" depart="607.14">
        <route edges="-E9 E11 -E12 -E8 E7 E9"/>
    </vehicle>
    <vehicle id="veh881" depart="611.11">
        <route edges="-E10 -E7 E6"/>
    </vehicle>
    <vehicle id="veh1077" depart="614.63">
        <route edges="-E4 E1 E2"/>
    </vehicle>
    <vehicle id="veh760" depart="614.70">
        <route edges="-E2 E3 -E8 E6"/>
    </vehicle>
    <vehicle id="veh1232" depart="615.23">
        <route edges="-E4 E0 E6"/>
    </vehicle>
    <vehicle id="veh368" depart="619.49">
        <route edges="-E6 E5 -E1 E0 E6"/>
    </vehicle>
    <vehicle id="veh1409" depart="620.39">
        <route edges="-E9 E10"/>
    </vehicle>
    <vehicle id="veh33" depart="625.02">
        <route edges="-E14 -E8 E7 E10"/>
    </vehicle>
    <vehicle id="veh771" depart="625.57">
        <route edges="-E14 -E8 E6"/>
    </vehicle>
    <vehicle id="veh1724" depart="627.05">
        <route edges="-E13 -E12 -E8 E6"/>
    </vehicle>
    <vehicle id="veh139" depart="630.52">
        <route edges="-E9 -E7 E6"/>
    </vehicle>
    <vehicle id="veh1619" depart="631.15">
        <route edges="-E4 E0 E6"/>
    </vehicle>
    <vehicle id="veh245" depart="631.24">
        <route edges="-E14 -E8 E7 E10"/>
    </vehicle>
    <vehicle id="veh159" depart="633.20">
        <route edges="-E14 -E8 E6"/>
    </vehicle>
    <vehicle id="veh325" depart="634.32">
        <route edges="-E4 E0 E6"/>
    </vehicle>
    <vehicle id="veh742" depart="634.95">
        <route edges="-E9 E11 E13"/>
    </vehicle>
    <vehicle id="veh1019" depart="639.82">
        <route edges="-E4 E0 E7 E9"/>
    </vehicle>
    <vehicle id="veh85" depart="642.81">
        <route edges="-E9 -E7 E6"/>
    </vehicle>
    <vehicle id="veh315" depart="643.59">
        <route edges="-E10 E11 -E12 -E8 E7 E10"/>
    </vehicle>
    <vehicle id="veh1730" depart="645.68">
        <route edges="-E6 E7 E10"/>
    </vehicle>
    <vehicle id="veh1956" depart="647.92">
        <route edges="-E10 E11 E13"/>
    </vehicle>
    <vehicle id="veh442" depart="649.09">
        <route edges="-E2 E3 E12 -E11 E9"/>
    </vehicle>
    <vehicle id="veh997" depart="649.42">
        <route edges="-E2 E3 -E8 E6"/>
    </vehicle>
    <vehicle id="veh1971" depart="650.17">
        <route edges="-E4 E0 E5 -E1 E4"/>
    </vehicle>
    <vehicle id="veh1200" depart="656.64">
        <route edges="-E2 E3 E12 E13"/>
    </vehicle>
    <vehicle id="veh699" depart="657.54">
        <route edges="-E6 E5 -E1 E0 E6"/>
    </vehicle>
    <vehicle id="veh366" depart="665.00">
        <route edges="-E9 E11 E13"/>
    </vehicle>
    <vehicle id="veh490" depart="666.83">
        <route edges="-E4 E0 E7 E9"/>
    </vehicle>
    <vehicle id="veh318" depart="667.19">
        <route edges="-E6 E7 E10"/>
    </vehicle>
    <vehicle id="veh1274" depart="668.30">
        <route edges="-E2 -E1 E0 E5 E2"/>
    </vehicle>
    <vehicle id="veh1993" depart="671.73">
        <route edges="-E10 -E7 E6"/>
    </vehicle>
    <vehicle id="veh227" depart="672.65">
        <route edges="-E4 E0 E7 E11 E13"/>
    </vehicle>
    <vehicle id="veh1295" depart="673.63">
        <route edges="-E13 -E11 E10"/>
    </vehicle>
    <vehicle id="veh588" depart="675.58">
        <route edges="-E9 -E7 E6"/>
    </vehicle>
    <vehicle id="veh77" depart="679.12">
        <route edges="-E9 -E7 -E0 E4"/>
    </vehicle>
    <vehicle id="veh1139" depart="679.63">
        <route edges="-E6 E8 E12 E13"/>
    </vehicle>
    <vehicle id="veh214" depart="682.12">
        <route edges="-E13 -E11 E10"/>
    </vehicle>
    <vehicle id="veh498" depart="683.74">
        <route edges="-E2 E3 -E8 E6"/>
    </vehicle>
    <vehicle id="veh1895" depart="685.12">
        <route edges="-E14 -E8 E7 E10"/>
    </vehicle>
    <vehicle id="veh803" depart="686.25">
        <route edges="-E10 E11 -E12 -E8 E7 E10"/>
    </vehicle>
    <vehicle id="veh804" depart="688.09">
        <route edges="-E9 E10"/>
    </vehicle>
    <vehicle id="veh1594" depart="693.93">
        <route edges="-E13 -E11 E10"/>
    </vehicle>
    <vehicle id="veh1821" depart="694.21">
        <route edges="-E13 -E12 E14"/>
    </vehicle>
    <vehicle id="veh1633" depart="696.67">
        <route edges="-E10 E11 -E12 -E8 E7 E10"/>
    </vehicle>
    <vehicle id="veh1984" depart="697.70">
        <route edges="-E10 -E7 E6"/>
    </vehicle>
    <vehicle id="veh254" depart="698.25">
        <route edges="-E14 -E8 E6"/>
    </vehicle>
    <vehicle id="veh978" depart="704.22">
        <route edges="-E2 -E1 E0 E7 E10"/>
    </vehicle>
    <vehicle id="veh1925" depart="705.10">
        <route edges="-E2 E3 -E8 E6"/>
    </vehicle>
    <vehicle id="veh1397" depart="708.35">
        <route edges="-E10 E11 E13"/>
    </vehicle>
    <vehicle id="veh1227" depart="711.15">
        <route edges="-E6 E8 E12 E13"/>
    </vehicle>
    <vehicle id="veh1268" depart="712.18">
        <route edges="-E6 E5 -E1 E0 E6"/>
    </vehicle>
    <vehicle id="veh1492" depart="712.88">
        <route edges="-E9 -E7 E6"/>
    </vehicle>
    <vehicle id="veh580" depart="716.21">
        <route edges="-E10 -E7 E6"/>
    </vehicle>
    <vehicle id="veh494" depart="718.55">
        <route edges="-E4 E0 E7 E10"/>
    </vehicle>
    <vehicle id="veh1404" depart="719.58">
        <route edges="-E6 E5 -E1 E0 E6"/>
    </vehicle>
    <vehicle id="veh846" depart="719.80">
        <route edges="-E4 E0 E7 E11 E13"/>
    </vehicle>
    <vehicle id="veh1535" depart="720.50">
        <route edges="-E2 E3 E12 E13"/>
    </vehicle>
    <vehicle id="veh229" depart="721.01">
        <route edges="-E6 E5 -E1 E0 E6"/>
    </vehicle>
    <vehicle id="veh604" depart="723.01">
        <route edges="-E4 E0 E7 E11 E13"/>
    </vehicle>
    <vehicle id="veh805" depart="724.23">
        <route edges="-E13 -E11 E10"/>
    </vehicle>
    <vehicle id="veh149" depart="724.89">
        <route edges="-E6 E7 E10"/>
    </vehicle>
    <vehicle id="veh704" depart="726.74">
        <route edges="-E2 E3 E12 E13"/>
    </vehicle>
    <vehicle id="veh1264" depart="728.04">
        <route edges="-E9 E10"/>
    </vehicle>
    <vehicle id="veh614" depart="728.22">
        <route edges="-E13 -E12 -E8 E7 E11 E13"/>
    </vehicle>
    <vehicle id="veh1261" depart="728.46">
        <route edges="-E6 E8 E12 E13"/>
    </vehicle>
    <vehicle id="veh822" depart="731.48">
        <route edges="-E10 E11 E13"/>
    </vehicle>
    <vehicle id="veh585" depart="735.47">
        <route edges="-E6 E5 -E1 E0 E6"/>
    </vehicle>
    <vehicle id="veh1354" depart="736.55">
        <route edges="-E13 -E12 -E8 E6"/>
    </vehicle>
    <vehicle id="veh136" depart="737.13">
        <route edges="-E9 E11 E13"/>
    </vehicle>
    <vehicle id="veh1915" depart="739.92">
        <route edges="-E14 -E8 -E0 E4"/>
    </vehicle>
    <vehicle id="veh1695" depart="742.35">
        <route edges="-E4 E0 E6"/>
    </vehicle>
    <vehicle id="veh1778" depart="742.47">
        <route edges="-E13 -E12 -E8 E7 E11 E13"/>
    </vehicle>
    <vehicle id="veh844" depart="742.60">
        <route edges="-E10 -E7 E6"/>
    </vehicle>
    <vehicle id="veh1914" depart="743.44">
        <route edges="-E10 -E7 E6"/>
    </vehicle>
    <vehicle id="veh326" depart="745.90">
        <route edges="-E14 -E8 E7 E10"/>
    </vehicle>
    <vehicle id="veh1487" depart="746.18">
        <route edges="-E9 E10"/>
    </vehicle>
    <vehicle id="veh1470" depart="746.41">
        <route edges="-E14 E12 E13"/>
    </vehicle>
    <vehicle id="veh236" depart="751.87">
        <route edges="-E10 -E7 -E0 E4"/>
    </vehicle>
    <vehicle id="veh708" depart="756.62">
        <route edges="-E10 -E7 E6"/>
    </vehicle>
    <vehicle id="veh1997" depart="758.36">
        <route edges="-E9 -E7 E6"/>
    </vehicle>
    <vehicle id="veh1433" depart="762.83">
        <route edges="-E13 -E11 E10"/>
    </vehicle>
    <vehicle id="veh749" depart="763.13">
        <route edges="-E6 E5 -E1 E0 E6"/>
    </vehicle>
    <vehicle id="veh1182" depart="763.22">
        <route edges="-E10 -E7 E6"/>
    </vehicle>
    <vehicle id="veh1407" depart="763.71">
        <route edges="-E10 E11 -E12 -E8 E7 E10"/>
    </vehicle>
    <vehicle id="veh1374" depart="766.47">
        <route edges="-E9 E10"/>
    </vehicle>
    <vehicle id="veh1808" depart="767.62">
        <route edges="-E14 E12 -E11 E9"/>
    </vehicle>
    <vehicle id="veh1405" depart="768.10">
        <route edges="-E14 -E8 E7 E10"/>
    </vehicle>
    <vehicle id="veh1662" depart="769.49">
        <route edges="-E6 E7 E9"/>
    </vehicle>
    <vehicle id="veh1491" depart="770.95">
        <route edges="-E9 -E7 E6"/>
    </vehicle>
    <vehicle id="veh1391" depart="773.81">
        <route edges="-E2 -E1 E0 E7 E10"/>
    </vehicle>
    <vehicle id="veh1431" depart="773.90">
        <route edges="-E13 -E12 -E8 E6"/>
    </vehicle>
    <vehicle id="veh1655" depart="775.31">
        <route edges="-E2 -E1 E4"/>
    </vehicle>
    <vehicle id="veh389" depart="775.60">
        <route edges="-E6 E7 E10"/>
    </vehicle>
    <vehicle id="veh909" depart="780.10">
        <route edges="-E4 E0 E7 E10"/>
    </vehicle>
    <vehicle id="veh377" depart="780.29">
        <route edges="-E14 E12 E13"/>
    </vehicle>
    <vehicle id="veh662" depart="781.10">
        <route edges="-E4 E0 E7 E10"/>
    </vehicle>
    <vehicle id="veh1854" depart="782.00">
        <route edges="-E4 E0 E7 E10"/>
    </vehicle>
    <vehicle id="veh765" depart="782.34">
        <route edges="-E14 -E8 E6"/>
    </vehicle>
    <vehicle id="veh1310" depart="783.47">
        <route edges="-E2 E3 E14"/>
    </vehicle>
    <vehicle id="veh1500" depart="784.14">
        <route edges="-E10 -E7 E6"/>
    </vehicle>
    <vehicle id="veh1868" depart="784.30">
        <route edges="-E14 E12 E13"/>
    </vehicle>
    <vehicle id="veh1434" depart="784.86">
        <route edges="-E4 E0 E7 E11 E13"/>
    </vehicle>
    <vehicle id="veh391" depart="786.77">
        <route edges="-E10 -E7 E6"/>
    </vehicle>
    <vehicle id="veh1853" depart="787.00">
        <route edges="-E10 E11 -E12 -E8 E7 E10"/>
    </vehicle>
    <vehicle id="veh448" depart="788.62">
        <route edges="-E2 E3 E12 E13"/>
    </vehicle>
    <vehicle id="veh716" depart="789.26">
        <route edges="-E10 -E7 E6"/>
    </vehicle>
    <vehicle id="veh1430" depart="789.53">
        <route edges="-E6 E5 -E1 E0 E6"/>
    </vehicle>
    <vehicle id="veh984" depart="793.06">
        <route edges="-E14 -E8 E6"/>
    </vehicle>
    <vehicle id="veh440" depart="794.10">
        <route edges="-E4 E0 E8 E14"/>
    </vehicle>
    <vehicle id="veh1637" depart="794.42">
        <route edges="-E4 E0 E7 E10"/>
    </vehicle>
    <vehicle id="veh1740" depart="794.49">
        <route edges="-E4 E0 E8 E14"/>
    </vehicle>
    <vehicle id="veh1597" depart="798.00">
        <route edges="-E2 E3 -E8 E6"/>
    </vehicle>
    <vehicle id="veh1877" depart="798.12">
        <route edges="-E9 -E7 E6"/>
    </vehicle>
    <vehicle id="veh567" depart="798.41">
        <route edges="-E14 -E8 E7 E10"/>
    </vehicle>
    <vehicle id="veh1498" depart="800.39">
        <route edges="-E4 E0 E7 E10"/>
    </vehicle>
    <vehicle id="veh1352" depart="801.00">
        <route edges="-E13 -E11 E9"/>
    </vehicle>
    <vehicle id="veh1739" depart="803.70">
        <route edges="-E10 E11 -E12 -E8 E7 E10"/>
    </vehicle>
    <vehicle id="veh431" depart="805.68">
        <route edges="-E10 E11 E13"/>
    </vehicle>
    <vehicle id="veh434" depart="806.17">
        <route edges="-E6 E8 E12 E13"/>
    </vehicle>
    <vehicle id="veh1224" depart="807.96">
        <route edges="-E6 E8 E14"/>
    </vehicle>
    <vehicle id="veh1140" depart="810.39">
        <route edges="-E13 -E12 -E8 E6"/>
    </vehicle>
    <vehicle id="veh852" depart="812.87">
        <route edges="-E4 E0 E7 E10"/>
    </vehicle>
    <vehicle id="veh1329" depart="813.07">
        <route edges="-E9 E11 -E12 E14"/>
    </vehicle>
    <vehicle id="veh114" depart="813.73">
        <route edges="-E10 E11 E13"/>
    </vehicle>
    <vehicle id="veh885" depart="814.54">
        <route edges="-E14 E12 E13"/>
    </vehicle>
    <vehicle id="veh1396" depart="816.30">
        <route edges="-E9 -E7 E6"/>
    </vehicle>
    <vehicle id="veh42" depart="816.91">
        <route edges="-E6 E7 E10"/>
    </vehicle>
    <vehicle id="veh1292" depart="819.24">
        <route edges="-E6 E8 E12 E13"/>
    </vehicle>
    <vehicle id="veh1569" depart="819.56">
        <route edges="-E13 -E12 -E3 -E1 E4"/>
    </vehicle>
    <vehicle id="veh154" depart="820.05">
        <route edges="-E14 -E8 E6"/>
    </vehicle>
    <vehicle id="veh1519" depart="820.25">
        <route edges="-E14 E12 E13"/>
    </vehicle>
    <vehicle id="veh968" depart="820.67">
        <route edges="-E10 -E7 E6"/>
    </vehicle>
    <vehicle id="veh1975" depart="822.62">
        <route edges="-E4 E0 E6"/>
    </vehicle>
    <vehicle id="veh526" depart="824.20">
        <route edges="-E4 E0 E6"/>
    </vehicle>
    <vehicle id="veh1809" depart="824.28">
        <route edges="-E13 -E12 -E8 E6"/>
    </vehicle>
    <vehicle id="veh118" depart="824.28">
        <route edges="-E14 -E8 E7 E10"/>
    </vehicle>
    <vehicle id="veh752" depart="825.69">
        <route edges="-E2 E3 E12 E13"/>
    </vehicle>
    <vehicle id="veh237" depart="829.17">
        <route edges="-E13 -E12 -E8 E7 E11 E13"/>
    </vehicle>
    <vehicle id="veh181" depart="834.20">
        <route edges="-E2 -E1 E4"/>
    </vehicle>
    <vehicle id="veh1191" depart="835.31">
        <route edges="-E14 -E8 -E0 E4"/>
    </vehicle>
    <vehicle id="veh1688" depart="836.55">
        <route edges="-E6 E5 -E1 E0 E6"/>
    </vehicle>
    <vehicle id="veh726" depart="837.38">
        <route edges="-E9 E10"/>
    </vehicle>
    <vehicle id="veh582" depart="838.08">
        <route edges="-E14 -E8 E6"/>
    </vehicle>
    <vehicle id="veh1188" depart="844.82">
        <route edges="-E9 E11 E13"/>
    </vehicle>
    <vehicle id="veh1348" depart="846.52">
        <route edges="-E6 E5 -E1 E0 E6"/>
    </vehicle>
    <vehicle id="veh1963" depart="846.79">
        <route edges="-E9 -E7 E6"/>
    </vehicle>
    <vehicle id="veh1319" depart="847.13">
        <route edges="-E4 E0 E7 E10"/>
    </vehicle>
    <vehicle id="veh1265" depart="847.87">
        <route edges="-E13 -E11 E10"/>
    </vehicle>
    <vehicle id="veh1865" depart="848.55">
        <route edges="-E2 E3 -E8 E6"/>
    </vehicle>
    <vehicle id="veh1666" depart="849.03">
        <route edges="-E10 E11 E13"/>
    </vehicle>
    <vehicle id="veh696" depart="850.78">
        <route edges="-E2 E3 -E8 E6"/>
    </vehicle>
    <vehicle id="veh1977" depart="850.95">
        <route edges="-E14 -E8 E7 E10"/>
    </vehicle>
    <vehicle id="veh907" depart="852.53">
        <route edges="-E14 -E8 E7 E10"/>
    </vehicle>
    <vehicle id="veh1462" depart="855.69">
        <route edges="-E9 E11 E13"/>
    </vehicle>
    <vehicle id="veh285" depart="856.01">
        <route edges="-E4 E0 E8 E14"/>
    </vehicle>
    <vehicle id="veh945" depart="859.40">
        <route edges="-E10 E11 -E12 -E8 E7 E10"/>
    </vehicle>
    <vehicle id="veh809" depart="859.95">
        <route edges="-E6 E7 E10"/>
    </vehicle>
    <vehicle id="veh1101" depart="861.71">
        <route edges="-E13 -E12 -E8 E6"/>
    </vehicle>
    <vehicle id="veh1490" depart="863.15">
        <route edges="-E6 E5 -E1 E0 E6"/>
    </vehicle>
    <vehicle id="veh611" depart="864.28">
        <route edges="-E13 -E12 -E8 E7 E11 E13"/>
    </vehicle>
    <vehicle id="veh756" depart="864.44">
        <route edges="-E14 E12 E13"/>
    </vehicle>
    <vehicle id="veh1054" depart="867.23">
        <route edges="-E9 E11 E13"/>
    </vehicle>
    <vehicle id="veh158" depart="869.17">
        <route edges="-E10 -E7 -E0 E4"/>
    </vehicle>
    <vehicle id="veh1284" depart="869.89">
        <route edges="-E9 E11 E13"/>
    </vehicle>
    <vehicle id="veh1554" depart="871.08">
        <route edges="-E6 E7 E10"/>
    </vehicle>
    <vehicle id="veh1444" depart="871.49">
        <route edges="-E14 -E8 E6"/>
    </vehicle>
    <vehicle id="veh1313" depart="871.58">
        <route edges="-E13 -E11 E10"/>
    </vehicle>
    <vehicle id="veh1336" depart="875.58">
        <route edges="-E2 E3 -E8 E6"/>
    </vehicle>
    <vehicle id="veh1528" depart="877.08">
        <route edges="-E14 E12 E13"/>
    </vehicle>
    <vehicle id="veh715" depart="879.38">
        <route edges="-E14 E12 E13"/>
    </vehicle>
    <vehicle id="veh372" depart="881.51">
        <route edges="-E9 E10"/>
    </vehicle>
    <vehicle id="veh970" depart="881.88">
        <route edges="-E2 E3 -E8 E6"/>
    </vehicle>
    <vehicle id="veh1629" depart="882.48">