<routes>
  <vType id="car" vClass="passenger" sigma="0.5" acceleration="2.6" deceleration="4.5" maxSpeed="15.0" />
  <trip id="veh_284" type="car" depart="6.24" from="-E9" to="E13" />
  <trip id="veh_197" type="car" depart="6.71" from="-E10" to="E13" />
  <trip id="veh_655" type="car" depart="6.76" from="-E10" to="E10" />
  <trip id="veh_329" type="car" depart="12.77" from="-E9" to="E10" />
  <trip id="veh_61" type="car" depart="16.17" from="-E13" to="E6" />
  <trip id="veh_1093" type="car" depart="16.90" from="-E10" to="E4" />
  <trip id="veh_150" type="car" depart="21.67" from="-E13" to="E10" />
  <trip id="veh_995" type="car" depart="27.03" from="-E14" to="E9" />
  <trip id="veh_1182" type="car" depart="29.88" from="-E6" to="E10" />
  <trip id="veh_1164" type="car" depart="41.07" from="-E2" to="E13" />
  <trip id="veh_49" type="car" depart="42.51" from="-E14" to="E13" />
  <trip id="veh_151" type="car" depart="44.50" from="-E14" to="E13" />
  <trip id="veh_447" type="car" depart="46.64" from="-E9" to="E10" />
  <trip id="veh_910" type="car" depart="47.53" from="-E10" to="E10" />
  <trip id="veh_110" type="car" depart="48.33" from="-E14" to="E13" />
  <trip id="veh_168" type="car" depart="50.04" from="-E6" to="E10" />
  <trip id="veh_1060" type="car" depart="55.71" from="-E13" to="E13" />
  <trip id="veh_457" type="car" depart="56.18" from="-E6" to="E13" />
  <trip id="veh_939" type="car" depart="59.54" from="-E6" to="E10" />
  <trip id="veh_390" type="car" depart="61.54" from="-E13" to="E6" />
  <trip id="veh_181" type="car" depart="61.85" from="-E13" to="E13" />
  <trip id="veh_1158" type="car" depart="65.53" from="-E6" to="E13" />
  <trip id="veh_158" type="car" depart="66.64" from="-E13" to="E13" />
  <trip id="veh_959" type="car" depart="67.69" from="-E14" to="E13" />
  <trip id="veh_264" type="car" depart="68.02" from="-E9" to="E13" />
  <trip id="veh_301" type="car" depart="72.44" from="-E2" to="E6" />
  <trip id="veh_1144" type="car" depart="72.48" from="-E9" to="E13" />
  <trip id="veh_476" type="car" depart="73.87" from="-E2" to="E6" />
  <trip id="veh_630" type="car" depart="76.65" from="-E9" to="E13" />
  <trip id="veh_1046" type="car" depart="79.10" from="-E9" to="E10" />
  <trip id="veh_1192" type="car" depart="79.26" from="-E9" to="E13" />
  <trip id="veh_440" type="car" depart="83.10" from="-E9" to="E14" />
  <trip id="veh_1058" type="car" depart="83.18" from="-E10" to="E13" />
  <trip id="veh_686" type="car" depart="84.50" from="-E2" to="E6" />
  <trip id="veh_342" type="car" depart="85.58" from="-E6" to="E6" />
  <trip id="veh_641" type="car" depart="86.05" from="-E6" to="E10" />
  <trip id="veh_1065" type="car" depart="86.76" from="-E10" to="E6" />
  <trip id="veh_127" type="car" depart="88.12" from="-E14" to="E13" />
  <trip id="veh_952" type="car" depart="88.57" from="-E2" to="E10" />
  <trip id="veh_1197" type="car" depart="91.04" from="-E14" to="E13" />
  <trip id="veh_74" type="car" depart="91.10" from="-E14" to="E13" />
  <trip id="veh_829" type="car" depart="92.42" from="-E2" to="E6" />
  <trip id="veh_338" type="car" depart="92.55" from="-E10" to="E13" />
  <trip id="veh_1116" type="car" depart="93.59" from="-E14" to="E13" />
  <trip id="veh_1115" type="car" depart="99.22" from="-E4" to="E6" />
  <trip id="veh_1142" type="car" depart="100.65" from="-E14" to="E6" />
  <trip id="veh_166" type="car" depart="100.92" from="-E14" to="E13" />
  <trip id="veh_191" type="car" depart="103.43" from="-E6" to="E13" />
  <trip id="veh_79" type="car" depart="105.99" from="-E14" to="E10" />
  <trip id="veh_1154" type="car" depart="110.80" from="-E13" to="E6" />
  <trip id="veh_68" type="car" depart="110.98" from="-E4" to="E13" />
  <trip id="veh_378" type="car" depart="111.84" from="-E10" to="E6" />
  <trip id="veh_1075" type="car" depart="112.09" from="-E10" to="E6" />
  <trip id="veh_792" type="car" depart="121.39" from="-E9" to="E6" />
  <trip id="veh_1112" type="car" depart="124.67" from="-E2" to="E13" />
  <trip id="veh_973" type="car" depart="127.53" from="-E10" to="E6" />
  <trip id="veh_834" type="car" depart="127.59" from="-E2" to="E10" />
  <trip id="veh_39" type="car" depart="127.62" from="-E6" to="E6" />
  <trip id="veh_1199" type="car" depart="129.27" from="-E4" to="E6" />
  <trip id="veh_186" type="car" depart="133.30" from="-E13" to="E13" />
  <trip id="veh_688" type="car" depart="139.44" from="-E4" to="E10" />
  <trip id="veh_114" type="car" depart="140.34" from="-E13" to="E13" />
  <trip id="veh_570" type="car" depart="146.24" from="-E4" to="E6" />
  <trip id="veh_905" type="car" depart="148.49" from="-E6" to="E14" />
  <trip id="veh_773" type="car" depart="148.74" from="-E10" to="E10" />
  <trip id="veh_1069" type="car" depart="151.17" from="-E4" to="E14" />
  <trip id="veh_1106" type="car" depart="156.66" from="-E9" to="E13" />
  <trip id="veh_991" type="car" depart="157.75" from="-E10" to="E4" />
  <trip id="veh_650" type="car" depart="161.09" from="-E6" to="E10" />
  <trip id="veh_844" type="car" depart="164.76" from="-E2" to="E10" />
  <trip id="veh_928" type="car" depart="165.12" from="-E2" to="E10" />
  <trip id="veh_205" type="car" depart="169.43" from="-E4" to="E10" />
  <trip id="veh_545" type="car" depart="171.74" from="-E9" to="E6" />
  <trip id="veh_691" type="car" depart="173.64" from="-E6" to="E6" />
  <trip id="veh_316" type="car" depart="178.44" from="-E14" to="E6" />
  <trip id="veh_893" type="car" depart="180.36" from="-E14" to="E6" />
  <trip id="veh_402" type="car" depart="183.31" from="-E14" to="E10" />
  <trip id="veh_676" type="car" depart="183.53" from="-E2" to="E10" />
  <trip id="veh_1019" type="car" depart="185.47" from="-E9" to="E6" />
  <trip id="veh_546" type="car" depart="187.95" from="-E9" to="E10" />
  <trip id="veh_11" type="car" depart="188.33" from="-E6" to="E13" />
  <trip id="veh_577" type="car" depart="191.37" from="-E10" to="E10" />
  <trip id="veh_971" type="car" depart="192.07" from="-E6" to="E6" />
  <trip id="veh_320" type="car" depart="192.43" from="-E10" to="E6" />
  <trip id="veh_1171" type="car" depart="194.74" from="-E13" to="E10" />
  <trip id="veh_745" type="car" depart="195.12" from="-E13" to="E13" />
  <trip id="veh_189" type="car" depart="196.54" from="-E4" to="E13" />
  <trip id="veh_321" type="car" depart="204.80" from="-E14" to="E13" />
  <trip id="veh_527" type="car" depart="213.60" from="-E14" to="E10" />
  <trip id="veh_488" type="car" depart="214.14" from="-E6" to="E10" />
  <trip id="veh_744" type="car" depart="215.49" from="-E13" to="E13" />
  <trip id="veh_273" type="car" depart="220.11" from="-E2" to="E13" />
  <trip id="veh_1057" type="car" depart="221.65" from="-E2" to="E2" />
  <trip id="veh_841" type="car" depart="224.16" from="-E2" to="E6" />
  <trip id="veh_539" type="car" depart="225.30" from="-E6" to="E10" />
  <trip id="veh_371" type="car" depart="227.22" from="-E9" to="E13" />
  <trip id="veh_75" type="car" depart="230.44" from="-E4" to="E13" />
  <trip id="veh_949" type="car" depart="241.93" from="-E9" to="E14" />
  <trip id="veh_30" type="car" depart="242.28" from="-E6" to="E13" />
  <trip id="veh_990" type="car" depart="242.76" from="-E14" to="E10" />
  <trip id="veh_996" type="car" depart="244.09" from="-E14" to="E13" />
  <trip id="veh_786" type="car" depart="246.26" from="-E13" to="E13" />
  <trip id="veh_111" type="car" depart="254.01" from="-E2" to="E14" />
  <trip id="veh_373" type="car" depart="258.58" from="-E9" to="E6" />
  <trip id="veh_1148" type="car" depart="263.99" from="-E13" to="E10" />
  <trip id="veh_217" type="car" depart="278.87" from="-E2" to="E6" />
  <trip id="veh_303" type="car" depart="284.01" from="-E13" to="E6" />
  <trip id="veh_919" type="car" depart="284.35" from="-E6" to="E2" />
  <trip id="veh_818" type="car" depart="289.41" from="-E4" to="E13" />
  <trip id="veh_510" type="car" depart="289.96" from="-E6" to="E6" />
  <trip id="veh_296" type="car" depart="298.51" from="-E6" to="E10" />
  <trip id="veh_451" type="car" depart="301.17" from="-E10" to="E6" />
  <trip id="veh_91" type="car" depart="307.70" from="-E13" to="E6" />
  <trip id="veh_803" type="car" depart="311.76" from="-E13" to="E13" />
  <trip id="veh_693" type="car" depart="313.34" from="-E10" to="E6" />
  <trip id="veh_517" type="car" depart="314.44" from="-E10" to="E10" />
  <trip id="veh_478" type="car" depart="317.61" from="-E10" to="E6" />
  <trip id="veh_860" type="car" depart="325.18" from="-E10" to="E10" />
  <trip id="veh_653" type="car" depart="327.23" from="-E14" to="E10" />
  <trip id="veh_272" type="car" depart="327.59" from="-E2" to="E10" />
  <trip id="veh_164" type="car" depart="329.67" from="-E4" to="E13" />
  <trip id="veh_748" type="car" depart="336.13" from="-E2" to="E6" />
  <trip id="veh_906" type="car" depart="337.84" from="-E6" to="E13" />
  <trip id="veh_253" type="car" depart="338.00" from="-E2" to="E13" />
  <trip id="veh_1121" type="car" depart="339.91" from="-E14" to="E10" />
  <trip id="veh_494" type="car" depart="344.01" from="-E6" to="E6" />
  <trip id="veh_612" type="car" depart="344.13" from="-E9" to="E10" />
  <trip id="veh_569" type="car" depart="344.66" from="-E13" to="E13" />
  <trip id="veh_657" type="car" depart="348.92" from="-E4" to="E13" />
  <trip id="veh_972" type="car" depart="352.04" from="-E9" to="E10" />
  <trip id="veh_718" type="car" depart="352.99" from="-E10" to="E13" />
  <trip id="veh_757" type="car" depart="354.46" from="-E14" to="E13" />
  <trip id="veh_816" type="car" depart="359.69" from="-E6" to="E13" />
  <trip id="veh_1160" type="car" depart="361.39" from="-E13" to="E6" />
  <trip id="veh_52" type="car" depart="362.61" from="-E2" to="E10" />
  <trip id="veh_297" type="car" depart="364.84" from="-E2" to="E10" />
  <trip id="veh_670" type="car" depart="364.86" from="-E4" to="E10" />
  <trip id="veh_492" type="car" depart="365.21" from="-E6" to="E6" />
  <trip id="veh_42" type="car" depart="365.24" from="-E10" to="E10" />
  <trip id="veh_660" type="car" depart="375.14" from="-E14" to="E13" />
  <trip id="veh_1004" type="car" depart="376.92" from="-E6" to="E10" />
  <trip id="veh_304" type="car" depart="380.34" from="-E14" to="E2" />
  <trip id="veh_174" type="car" depart="381.27" from="-E6" to="E10" />
  <trip id="veh_845" type="car" depart="381.59" from="-E14" to="E6" />
  <trip id="veh_149" type="car" depart="392.13" from="-E9" to="E10" />
  <trip id="veh_1084" type="car" depart="397.15" from="-E9" to="E6" />
  <trip id="veh_261" type="car" depart="399.18" from="-E14" to="E10" />
  <trip id="veh_73" type="car" depart="401.06" from="-E2" to="E10" />
  <trip id="veh_711" type="car" depart="402.84" from="-E4" to="E6" />
  <trip id="veh_934" type="car" depart="403.60" from="-E14" to="E10" />
  <trip id="veh_645" type="car" depart="406.77" from="-E10" to="E10" />
  <trip id="veh_625" type="car" depart="407.56" from="-E9" to="E13" />
  <trip id="veh_423" type="car" depart="408.25" from="-E9" to="E6" />
  <trip id="veh_344" type="car" depart="412.00" from="-E13" to="E14" />
  <trip id="veh_163" type="car" depart="415.90" from="-E4" to="E13" />
  <trip id="veh_1159" type="car" depart="417.81" from="-E6" to="E13" />
  <trip id="veh_286" type="car" depart="417.82" from="-E10" to="E6" />
  <trip id="veh_1161" type="car" depart="418.19" from="-E13" to="E10" />
  <trip id="veh_484" type="car" depart="420.74" from="-E13" to="E14" />
  <trip id="veh_332" type="car" depart="421.03" from="-E2" to="E13" />
  <trip id="veh_985" type="car" depart="422.26" from="-E4" to="E13" />
  <trip id="veh_346" type="car" depart="422.89" from="-E4" to="E13" />
  <trip id="veh_589" type="car" depart="427.37" from="-E14" to="E6" />
  <trip id="veh_542" type="car" depart="429.01" from="-E9" to="E13" />
  <trip id="veh_533" type="car" depart="429.11" from="-E9" to="E10" />
  <trip id="veh_568" type="car" depart="430.29" from="-E13" to="E13" />
  <trip id="veh_1010" type="car" depart="431.40" from="-E10" to="E10" />
  <trip id="veh_898" type="car" depart="436.37" from="-E9" to="E6" />
  <trip id="veh_731" type="car" depart="449.59" from="-E10" to="E6" />
  <trip id="veh_673" type="car" depart="455.92" from="-E6" to="E10" />
  <trip id="veh_640" type="car" depart="458.17" from="-E9" to="E10" />
  <trip id="veh_511" type="car" depart="464.11" from="-E4" to="E13" />
  <trip id="veh_1002" type="car" depart="467.70" from="-E9" to="E13" />
  <trip id="veh_617" type="car" depart="476.04" from="-E2" to="E10" />
  <trip id="veh_413" type="car" depart="480.92" from="-E14" to="E13" />
  <trip id="veh_57" type="car" depart="482.10" from="-E10" to="E6" />
  <trip id="veh_1085" type="car" depart="482.39" from="-E9" to="E13" />
  <trip id="veh_1061" type="car" depart="483.65" from="-E10" to="E6" />
  <trip id="veh_795" type="car" depart="487.52" from="-E13" to="E13" />
  <trip id="veh_1136" type="car" depart="489.65" from="-E2" to="E6" />
  <trip id="veh_459" type="car" depart="493.68" from="-E14" to="E13" />
  <trip id="veh_914" type="car" depart="495.09" from="-E13" to="E13" />
  <trip id="veh_313" type="car" depart="501.24" from="-E10" to="E10" />
  <trip id="veh_139" type="car" depart="503.43" from="-E14" to="E4" />
  <trip id="veh_874" type="car" depart="504.88" from="-E14" to="E13" />
  <trip id="veh_911" type="car" depart="508.91" from="-E14" to="E10" />
  <trip id="veh_375" type="car" depart="515.64" from="-E13" to="E6" />
  <trip id="veh_605" type="car" depart="521.59" from="-E10" to="E6" />
  <trip id="veh_475" type="car" depart="523.48" from="-E14" to="E6" />
  <trip id="veh_196" type="car" depart="529.01" from="-E2" to="E13" />
  <trip id="veh_247" type="car" depart="530.86" from="-E10" to="E10" />
  <trip id="veh_522" type="car" depart="531.01" from="-E2" to="E13" />
  <trip id="veh_403" type="car" depart="531.49" from="-E10" to="E6" />
  <trip id="veh_427" type="car" depart="532.84" from="-E6" to="E6" />
  <trip id="veh_141" type="car" depart="533.13" from="-E6" to="E6" />
  <trip id="veh_349" type="car" depart="533.68" from="-E13" to="E10" />
  <trip id="veh_1153" type="car" depart="538.10" from="-E13" to="E10" />
  <trip id="veh_1186" type="car" depart="539.30" from="-E2" to="E6" />
  <trip id="veh_287" type="car" depart="540.01" from="-E4" to="E13" />
  <trip id="veh_552" type="car" depart="542.24" from="-E13" to="E13" />
  <trip id="veh_680" type="car" depart="542.50" from="-E10" to="E13" />
  <trip id="veh_628" type="car" depart="548.43" from="-E9" to="E10" />
  <trip id="veh_144" type="car" depart="553.49" from="-E2" to="E6" />
  <trip id="veh_882" type="car" depart="555.56" from="-E13" to="E10" />
  <trip id="veh_615" type="car" depart="557.17" from="-E6" to="E13" />
  <trip id="veh_502" type="car" depart="558.45" from="-E10" to="E13" />
  <trip id="veh_1109" type="car" depart="558.97" from="-E4" to="E6" />
  <trip id="veh_623" type="car" depart="559.16" from="-E9" to="E6" />
  <trip id="veh_128" type="car" depart="559.27" from="-E6" to="E6" />
  <trip id="veh_1094" type="car" depart="559.40" from="-E9" to="E6" />
  <trip id="veh_690" type="car" depart="565.63" from="-E10" to="E13" />
  <trip id="veh_507" type="car" depart="567.43" from="-E9" to="E10" />
  <trip id="veh_348" type="car" depart="568.93" from="-E6" to="E6" />
  <trip id="veh_1074" type="car" depart="570.02" from="-E14" to="E6" />
  <trip id="veh_1184" type="car" depart="576.88" from="-E6" to="E6" />
  <trip id="veh_1038" type="car" depart="578.48" from="-E10" to="E6" />
  <trip id="veh_165" type="car" depart="580.09" from="-E13" to="E10" />
  <trip id="veh_790" type="car" depart="581.62" from="-E6" to="E2" />
  <trip id="veh_295" type="car" depart="585.48" from="-E14" to="E6" />
  <trip id="veh_222" type="car" depart="587.56" from="-E10" to="E6" />
  <trip id="veh_983" type="car" depart="588.03" from="-E6" to="E13" />
  <trip id="veh_495" type="car" depart="593.13" from="-E9" to="E10" />
  <trip id="veh_429" type="car" depart="593.31" from="-E6" to="E2" />
  <trip id="veh_333" type="car" depart="595.94" from="-E4" to="E10" />
  <trip id="veh_55" type="car" depart="597.40" from="-E2" to="E13" />
  <trip id="veh_87" type="car" depart="602.82" from="-E13" to="E6" />
  <trip id="veh_1172" type="car" depart="603.08" from="-E13" to="E10" />
  <trip id="veh_1173" type="car" depart="603.89" from="-E13" to="E6" />
  <trip id="veh_65" type="car" depart="610.66" from="-E14" to="E10" />
  <trip id="veh_120" type="car" depart="612.65" from="-E9" to="E6" />
  <trip id="veh_472" type="car" depart="613.50" from="-E4" to="E6" />
  <trip id="veh_1047" type="car" depart="613.79" from="-E6" to="E13" />
  <trip id="veh_761" type="car" depart="615.69" from="-E14" to="E10" />
  <trip id="veh_83" type="car" depart="617.91" from="-E2" to="E13" />
  <trip id="veh_652" type="car" depart="624.32" from="-E4" to="E6" />
  <trip id="veh_116" type="car" depart="624.44" from="-E4" to="E6" />
  <trip id="veh_1020" type="car" depart="627.11" from="-E13" to="E6" />
  <trip id="veh_619" type="car" depart="627.54" from="-E2" to="E6" />
  <trip id="veh_275" type="car" depart="633.58" from="-E2" to="E13" />
  <trip id="veh_351" type="car" depart="634.12" from="-E2" to="E10" />
  <trip id="veh_654" type="car" depart="634.51" from="-E9" to="E13" />
  <trip id="veh_1101" type="car" depart="639.20" from="-E10" to="E6" />
  <trip id="veh_407" type="car" depart="640.71" from="-E14" to="E6" />
  <trip id="veh_908" type="car" depart="641.93" from="-E4" to="E13" />
  <trip id="veh_489" type="car" depart="643.71" from="-E4" to="E13" />
  <trip id="veh_173" type="car" depart="649.94" from="-E9" to="E13" />
  <trip id="veh_354" type="car" depart="651.00" from="-E14" to="E13" />
  <trip id="veh_1029" type="car" depart="654.96" from="-E6" to="E13" />
  <trip id="veh_1001" type="car" depart="656.28" from="-E2" to="E13" />
  <trip id="veh_187" type="car" depart="656.60" from="-E14" to="E6" />
  <trip id="veh_677" type="car" depart="657.31" from="-E4" to="E6" />
  <trip id="veh_1123" type="car" depart="661.96" from="-E14" to="E6" />
  <trip id="veh_1179" type="car" depart="669.44" from="-E10" to="E13" />
  <trip id="veh_651" type="car" depart="669.79" from="-E14" to="E6" />
  <trip id="veh_86" type="car" depart="671.53" from="-E6" to="E13" />
  <trip id="veh_519" type="car" depart="675.08" from="-E13" to="E6" />
  <trip id="veh_1107" type="car" depart="683.69" from="-E2" to="E10" />
  <trip id="veh_51" type="car" depart="683.81" from="-E9" to="E10" />
  <trip id="veh_471" type="car" depart="685.33" from="-E4" to="E6" />
  <trip id="veh_50" type="car" depart="687.79" from="-E6" to="E13" />
  <trip id="veh_312" type="car" depart="706.55" from="-E9" to="E6" />
  <trip id="veh_43" type="car" depart="711.52" from="-E14" to="E6" />
  <trip id="veh_419" type="car" depart="712.19" from="-E2" to="E6" />
  <trip id="veh_862" type="car" depart="713.27" from="-E4" to="E6" />
  <trip id="veh_322" type="car" depart="713.89" from="-E6" to="E6" />
  <trip id="veh_580" type="car" depart="716.05" from="-E14" to="E6" />
  <trip id="veh_212" type="car" depart="716.83" from="-E13" to="E10" />
  <trip id="veh_331" type="car" depart="718.66" from="-E14" to="E13" />
  <trip id="veh_513" type="car" depart="721.89" from="-E4" to="E10" />
  <trip id="veh_683" type="car" depart="722.81" from="-E4" to="E6" />
  <trip id="veh_108" type="car" depart="724.20" from="-E14" to="E9" />
  <trip id="veh_1180" type="car" depart="725.62" from="-E2" to="E2" />
  <trip id="veh_820" type="car" depart="726.41" from="-E2" to="E6" />
  <trip id="veh_629" type="car" depart="728.27" from="-E6" to="E6" />
  <trip id="veh_1044" type="car" depart="731.90" from="-E2" to="E13" />
  <trip id="veh_838" type="car" depart="732.77" from="-E9" to="E6" />
  <trip id="veh_180" type="car" depart="733.04" from="-E2" to="E10" />
  <trip id="veh_324" type="car" depart="735.30" from="-E10" to="E2" />
  <trip id="veh_1113" type="car" depart="735.87" from="-E2" to="E10" />
  <trip id="veh_900" type="car" depart="736.23" from="-E14" to="E6" />
  <trip id="veh_235" type="car" depart="737.30" from="-E2" to="E6" />
  <trip id="veh_1174" type="car" depart="738.43" from="-E10" to="E10" />
  <trip id="veh_965" type="car" depart="738.82" from="-E13" to="E6" />
  <trip id="veh_24" type="car" depart="739.40" from="-E6" to="E10" />
  <trip id="veh_265" type="car" depart="743.49" from="-E6" to="E6" />
  <trip id="veh_633" type="car" depart="746.75" from="-E6" to="E13" />
  <trip id="veh_85" type="car" depart="748.07" from="-E10" to="E10" />
  <trip id="veh_1080" type="car" depart="749.06" from="-E4" to="E13" />
  <trip id="veh_750" type="car" depart="750.09" from="-E9" to="E6" />
  <trip id="veh_992" type="car" depart="751.12" from="-E4" to="E10" />
  <trip id="veh_1067" type="car" depart="752.66" from="-E2" to="E10" />
  <trip id="veh_398" type="car" depart="755.53" from="-E10" to="E6" />
  <trip id="veh_876" type="car" depart="757.13" from="-E9" to="E10" />
  <trip id="veh_726" type="car" depart="760.85" from="-E14" to="E13" />
  <trip id="veh_968" type="car" depart="766.04" from="-E4" to="E13" />
  <trip id="veh_452" type="car" depart="767.53" from="-E6" to="E10" />
  <trip id="veh_958" type="car" depart="768.10" from="-E4" to="E10" />
  <trip id="veh_700" type="car" depart="770.75" from="-E6" to="E13" />
  <trip id="veh_593" type="car" depart="775.63" from="-E4" to="E4" />
  <trip id="veh_1037" type="car" depart="779.68" from="-E2" to="E6" />
  <trip id="veh_257" type="car" depart="782.11" from="-E14" to="E13" />
  <trip id="veh_1040" type="car" depart="782.55" from="-E4" to="E10" />
  <trip id="veh_797" type="car" depart="782.81" from="-E13" to="E9" />
  <trip id="veh_610" type="car" depart="783.59" from="-E2" to="E10" />
  <trip id="veh_467" type="car" depart="788.03" from="-E4" to="E10" />
  <trip id="veh_918" type="car" depart="793.98" from="-E10" to="E10" />
  <trip id="veh_245" type="car" depart="794.86" from="-E6" to="E10" />
  <trip id="veh_1178" type="car" depart="798.33" from="-E6" to="E13" />
  <trip id="veh_685" type="car" depart="799.28" from="-E10" to="E10" />
  <trip id="veh_395" type="car" depart="800.28" from="-E2" to="E10" />
  <trip id="veh_1063" type="car" depart="804.81" from="-E4" to="E13" />
  <trip id="veh_830" type="car" depart="808.38" from="-E10" to="E13" />
  <trip id="veh_668" type="car" depart="810.34" from="-E2" to="E6" />
  <trip id="veh_364" type="car" depart="810.41" from="-E13" to="E13" />
  <trip id="veh_1138" type="car" depart="815.66" from="-E14" to="E13" />
  <trip id="veh_536" type="car" depart="816.03" from="-E4" to="E13" />
  <trip id="veh_1056" type="car" depart="816.10" from="-E10" to="E10" />
  <trip id="veh_917" type="car" depart="819.77" from="-E9" to="E6" />
  <trip id="veh_482" type="car" depart="829.75" from="-E2" to="E10" />
  <trip id="veh_1130" type="car" depart="837.85" from="-E2" to="E6" />
  <trip id="veh_1066" type="car" depart="843.79" from="-E14" to="E13" />
  <trip id="veh_674" type="car" depart="844.26" from="-E6" to="E6" />
  <trip id="veh_453" type="car" depart="846.35" from="-E14" to="E10" />
  <trip id="veh_444" type="car" depart="846.44" from="-E9" to="E6" />
  <trip id="veh_19" type="car" depart="855.64" from="-E6" to="E2" />
  <trip id="veh_832" type="car" depart="856.66" from="-E6" to="E13" />
  <trip id="veh_722" type="car" depart="856.96" from="-E13" to="E10" />
  <trip id="veh_752" type="car" depart="857.39" from="-E9" to="E13" />
  <trip id="veh_445" type="car" depart="857.48" from="-E10" to="E13" />
  <trip id="veh_391" type="car" depart="864.07" from="-E9" to="E6" />
  <trip id="veh_1195" type="car" depart="869.05" from="-E13" to="E13" />
  <trip id="veh_215" type="car" depart="869.36" from="-E6" to="E13" />
  <trip id="veh_635" type="car" depart="871.81" from="-E14" to="E10" />
  <trip id="veh_417" type="car" depart="872.17" from="-E9" to="E6" />
  <trip id="veh_897" type="car" depart="875.00" from="-E13" to="E13" />
  <trip id="veh_372" type="car" depart="879.67" from="-E4" to="E10" />
  <trip id="veh_1156" type="car" depart="884.03" from="-E2" to="E10" />
  <trip id="veh_945" type="car" depart="887.39" from="-E2" to="E13" />
  <trip id="veh_77" type="car" depart="892.06" from="-E10" to="E13" />
  <trip id="veh_950" type="car" depart="892.37" from="-E6" to="E13" />
  <trip id="veh_289" type="car" depart="892.58" from="-E9" to="E10" />
  <trip id="veh_920" type="car" depart="896.74" from="-E10" to="E13" />
  <trip id="veh_781" type="car" depart="901.75" from="-E4" to="E13" />
  <trip id="veh_25" type="car" depart="904.50" from="-E10" to="E6" />
  <trip id="veh_298" type="car" depart="904.54" from="-E14" to="E13" />
  <trip id="veh_434" type="car" depart="905.71" from="-E4" to="E13" />
  <trip id="veh_930" type="car" depart="906.25" from="-E4" to="E13" />
  <trip id="veh_964" type="car" depart="909.13" from="-E9" to="E9" />
  <trip id="veh_450" type="car" depart="910.26" from="-E2" to="E10" />
  <trip id="veh_1100" type="car" depart="913.23" from="-E9" to="E10" />
  <trip id="veh_1120" type="car" depart="914.65" from="-E13" to="E13" />
  <trip id="veh_727" type="car" depart="915.69" from="-E14" to="E10" />
  <trip id="veh_537" type="car" depart="916.36" from="-E14" to="E10" />
  <trip id="veh_132" type="car" depart="917.29" from="-E13" to="E10" />
  <trip id="veh_794" type="car" depart="917.43" from="-E13" to="E10" />
  <trip id="veh_526" type="car" depart="918.20" from="-E13" to="E6" />
  <trip id="veh_105" type="car" depart="922.43" from="-E9" to="E6" />
  <trip id="veh_421" type="car" depart="922.75" from="-E6" to="E10" />
  <trip id="veh_746" type="car" depart="927.59" from="-E9" to="E6" />
  <trip id="veh_1194" type="car" depart="930.26" from="-E4" to="E13" />
  <trip id="veh_90" type="car" depart="932.36" from="-E2" to="E6" />
  <trip id="veh_225" type="car" depart="933.34" from="-E14" to="E4" />
  <trip id="veh_309" type="car" depart="934.52" from="-E2" to="E13" />
  <trip id="veh_783" type="car" depart="935.87" from="-E4" to="E6" />
  <trip id="veh_441" type="car" depart="937.51" from="-E2" to="E2" />
  <trip id="veh_984" type="car" depart="939.41" from="-E6" to="E2" />
  <trip id="veh_642" type="car" depart="939.61" from="-E10" to="E10" />
  <trip id="veh_463" type="car" depart="943.82" from="-E6" to="E13" />
  <trip id="veh_856" type="car" depart="950.69" from="-E4" to="E10" />
  <trip id="veh_596" type="car" depart="953.41" from="-E4" to="E13" />
  <trip id="veh_889" type="car" depart="953.83" from="-E2" to="E10" />
  <trip id="veh_753" type="car" depart="956.45" from="-E6" to="E10" />
  <trip id="veh_1000" type="car" depart="958.89" from="-E6" to="E6" />
  <trip id="veh_631" type="car" depart="966.34" from="-E4" to="E6" />
  <trip id="veh_585" type="car" depart="967.33" from="-E6" to="E10" />
  <trip id="veh_1102" type="car" depart="968.12" from="-E6" to="E13" />
  <trip id="veh_118" type="car" depart="968.86" from="-E14" to="E9" />
  <trip id="veh_449" type="car" depart="969.40" from="-E9" to="E13" />
  <trip id="veh_426" type="car" depart="972.47" from="-E2" to="E6" />
  <trip id="veh_1188" type="car" depart="973.44" from="-E6" to="E13" />
  <trip id="veh_422" type="car" depart="975.92" from="-E2" to="E6" />
  <trip id="veh_707" type="car" depart="978.12" from="-E10" to="E10" />
  <trip id="veh_152" type="car" depart="979.73" from="-E2" to="E10" />
  <trip id="veh_1151" type="car" depart="981.63" from="-E9" to="E10" />
  <trip id="veh_608" type="car" depart="987.93" from="-E10" to="E10" />
  <trip id="veh_1026" type="car" depart="990.05" from="-E13" to="E13" />
  <trip id="veh_980" type="car" depart="994.47" from="-E2" to="E10" />
  <trip id="veh_430" type="car" depart="1001.50" from="-E14" to="E10" />
  <trip id="veh_1117" type="car" depart="1005.02" from="-E10" to="E6" />
  <trip id="veh_867" type="car" depart="1007.99" from="-E14" to="E6" />
  <trip id="veh_1071" type="car" depart="1008.20" from="-E10" to="E10" />
  <trip id="veh_6" type="car" depart="1008.33" from="-E9" to="E10" />
  <trip id="veh_376" type="car" depart="1010.18" from="-E2" to="E9" />
  <trip id="veh_885" type="car" depart="1010.92" from="-E10" to="E13" />
  <trip id="veh_923" type="car" depart="1012.75" from="-E2" to="E13" />
  <trip id="veh_1045" type="car" depart="1014.15" from="-E13" to="E13" />
  <trip id="veh_310" type="car" depart="1014.73" from="-E14" to="E2" />
  <trip id="veh_1098" type="car" depart="1014.84" from="-E10" to="E13" />
  <trip id="veh_729" type="car" depart="1020.03" from="-E9" to="E6" />
  <trip id="veh_236" type="car" depart="1026.01" from="-E6" to="E10" />
  <trip id="veh_778" type="car" depart="1026.53" from="-E4" to="E10" />
  <trip id="veh_27" type="car" depart="1028.16" from="-E13" to="E10" />
  <trip id="veh_879" type="car" depart="1030.21" from="-E14" to="E13" />
  <trip id="veh_406" type="car" depart="1031.54" from="-E9" to="E10" />
  <trip id="veh_366" type="car" depart="1033.44" from="-E10" to="E2" />
  <trip id="veh_374" type="car" depart="1034.12" from="-E10" to="E10" />
  <trip id="veh_531" type="car" depart="1035.63" from="-E10" to="E13" />
  <trip id="veh_671" type="car" depart="1036.40" from="-E6" to="E10" />
  <trip id="veh_989" type="car" depart="1043.17" from="-E6" to="E10" />
  <trip id="veh_955" type="car" depart="1045.24" from="-E2" to="E13" />
  <trip id="veh_828" type="car" depart="1046.57" from="-E2" to="E6" />
  <trip id="veh_584" type="car" depart="1050.64" from="-E4" to="E13" />
  <trip id="veh_161" type="car" depart="1051.70" from="-E13" to="E6" />
  <trip id="veh_823" type="car" depart="1052.96" from="-E4" to="E6" />
  <trip id="veh_64" type="car" depart="1057.54" from="-E6" to="E2" />
  <trip id="veh_156" type="car" depart="1060.23" from="-E4" to="E6" />
  <trip id="veh_3" type="car" depart="1062.35" from="-E9" to="E6" />
  <trip id="veh_575" type="car" depart="1066.12" from="-E14" to="E10" />
  <trip id="veh_439" type="car" depart="1071.14" from="-E2" to="E6" />
  <trip id="veh_69" type="car" depart="1073.61" from="-E14" to="E6" />