<?xml version="1.0" encoding="UTF-8"?>

<!-- generated on 2026-06-15T16:41:06.140668+01:00 by Eclipse SUMO duarouter 1.27.0
<duarouterConfiguration xmlns:xsi="http://www.w3.org/2001/XMLSchema-instance" xsi:noNamespaceSchemaLocation="http://sumo.dlr.de/xsd/duarouterConfiguration.xsd">

    <input>
        <net-file value="C:\Users\RODO\Desktop\Sys auto - Projekt\src\City_map_2\city2.net.xml"/>
        <route-files value="C:\Users\RODO\AppData\Local\Temp\city2_train_5.trips.xml"/>
    </input>

    <output>
        <output-file value="C:\Users\RODO\Desktop\Sys auto - Projekt\src\City_map_2\city2_train_5.rou.xml"/>
    </output>

    <report>
        <no-warnings value="true"/>
        <ignore-errors value="true"/>
    </report>

    <random_number>
        <seed value="1005"/>
    </random_number>

</duarouterConfiguration>
-->

<routes xmlns:xsi="http://www.w3.org/2001/XMLSchema-instance" xsi:noNamespaceSchemaLocation="http://sumo.dlr.de/xsd/routes_file.xsd">
    <vehicle id="veh268" depart="3.79">
        <route edges="-E13 -E12 -E8 E6"/>
    </vehicle>
    <vehicle id="veh714" depart="5.79">
        <route edges="-E2 E3 E12 E13"/>
    </vehicle>
    <vehicle id="veh372" depart="6.74">
        <route edges="-E9 E11 -E12 -E8 E7 E9"/>
    </vehicle>
    <vehicle id="veh226" depart="14.43">
        <route edges="-E14 -E8 E7 E10"/>
    </vehicle>
    <vehicle id="veh495" depart="15.21">
        <route edges="-E6 E7 E10"/>
    </vehicle>
    <vehicle id="veh1151" depart="16.36">
        <route edges="-E13 -E12 -E3 E2"/>
    </vehicle>
    <vehicle id="veh781" depart="16.80">
        <route edges="-E4 E1 E2"/>
    </vehicle>
    <vehicle id="veh1179" depart="26.88">
        <route edges="-E9 -E7 E5 E2"/>
    </vehicle>
    <vehicle id="veh62" depart="27.43">
        <route edges="-E4 E0 E7 E10"/>
    </vehicle>
    <vehicle id="veh607" depart="30.65">
        <route edges="-E6 E5 E2"/>
    </vehicle>
    <vehicle id="veh634" depart="31.92">
        <route edges="-E13 -E12 -E8 E7 E11 E13"/>
    </vehicle>
    <vehicle id="veh1093" depart="36.44">
        <route edges="-E2 E3 E14"/>
    </vehicle>
    <vehicle id="veh1078" depart="45.31">
        <route edges="-E4 E0 E6"/>
    </vehicle>
    <vehicle id="veh232" depart="45.49">
        <route edges="-E10 E11 -E12 -E8 E7 E10"/>
    </vehicle>
    <vehicle id="veh237" depart="45.79">
        <route edges="-E9 -E7 E6"/>
    </vehicle>
    <vehicle id="veh104" depart="49.60">
        <route edges="-E6 E7 E10"/>
    </vehicle>
    <vehicle id="veh880" depart="50.05">
        <route edges="-E9 E11 E13"/>
    </vehicle>
    <vehicle id="veh675" depart="53.46">
        <route edges="-E14 -E8 E7 E10"/>
    </vehicle>
    <vehicle id="veh1057" depart="56.21">
        <route edges="-E2 E3 E12 E13"/>
    </vehicle>
    <vehicle id="veh932" depart="59.74">
        <route edges="-E6 E5 -E1 E0 E6"/>
    </vehicle>
    <vehicle id="veh937" depart="63.67">
        <route edges="-E10 -E7 E6"/>
    </vehicle>
    <vehicle id="veh100" depart="66.75">
        <route edges="-E2 -E1 E0 E7 E10"/>
    </vehicle>
    <vehicle id="veh964" depart="69.08">
        <route edges="-E4 E0 E7 E10"/>
    </vehicle>
    <vehicle id="veh688" depart="69.31">
        <route edges="-E6 E8 E12 E13"/>
    </vehicle>
    <vehicle id="veh148" depart="75.30">
        <route edges="-E4 E0 E7 E10"/>
    </vehicle>
    <vehicle id="veh1154" depart="81.32">
        <route edges="-E14 -E8 E6"/>
    </vehicle>
    <vehicle id="veh803" depart="82.63">
        <route edges="-E10 E11 -E12 -E8 E7 E10"/>
    </vehicle>
    <vehicle id="veh1130" depart="85.81">
        <route edges="-E6 E5 E2"/>
    </vehicle>
    <vehicle id="veh673" depart="86.06">
        <route edges="-E13 -E11 E9"/>
    </vehicle>
    <vehicle id="veh894" depart="87.67">
        <route edges="-E9 E11 E13"/>
    </vehicle>
    <vehicle id="veh426" depart="88.07">
        <route edges="-E2 E3 E12 E13"/>
    </vehicle>
    <vehicle id="veh580" depart="88.51">
        <route edges="-E4 E0 E7 E10"/>
    </vehicle>
    <vehicle id="veh1071" depart="88.74">
        <route edges="-E4 E0 E7 E11 E13"/>
    </vehicle>
    <vehicle id="veh26" depart="92.88">
        <route edges="-E10 E11 -E12 -E8 E7 E10"/>
    </vehicle>
    <vehicle id="veh20" depart="97.62">
        <route edges="-E14 E12 E13"/>
    </vehicle>
    <vehicle id="veh722" depart="98.05">
        <route edges="-E6 E5 -E1 E0 E6"/>
    </vehicle>
    <vehicle id="veh308" depart="101.37">
        <route edges="-E14 -E8 E7 E10"/>
    </vehicle>
    <vehicle id="veh772" depart="110.01">
        <route edges="-E10 E11 -E12 -E8 E7 E10"/>
    </vehicle>
    <vehicle id="veh466" depart="112.53">
        <route edges="-E4 E0 E7 E10"/>
    </vehicle>
    <vehicle id="veh331" depart="117.90">
        <route edges="-E14 -E8 E6"/>
    </vehicle>
    <vehicle id="veh118" depart="120.16">
        <route edges="-E14 -E8 E7 E10"/>
    </vehicle>
    <vehicle id="veh464" depart="120.83">
        <route edges="-E4 E0 E7 E11 E13"/>
    </vehicle>
    <vehicle id="veh35" depart="122.21">
        <route edges="-E10 -E7 E6"/>
    </vehicle>
    <vehicle id="veh1165" depart="123.22">
        <route edges="-E9 E11 E13"/>
    </vehicle>
    <vehicle id="veh16" depart="126.92">
        <route edges="-E4 E0 E6"/>
    </vehicle>
    <vehicle id="veh357" depart="127.13">
        <route edges="-E10 E11 -E12 -E8 E7 E10"/>
    </vehicle>
    <vehicle id="veh371" depart="129.11">
        <route edges="-E2 -E1 E0 E7 E10"/>
    </vehicle>
    <vehicle id="veh991" depart="130.46">
        <route edges="-E14 -E3 E2"/>
    </vehicle>
    <vehicle id="veh4" depart="132.26">
        <route edges="-E6 E7 E9"/>
    </vehicle>
    <vehicle id="veh1105" depart="134.60">
        <route edges="-E6 E7 E10"/>
    </vehicle>
    <vehicle id="veh955" depart="140.08">
        <route edges="-E2 E3 -E8 E6"/>
    </vehicle>
    <vehicle id="veh1180" depart="140.44">
        <route edges="-E13 -E11 E10"/>
    </vehicle>
    <vehicle id="veh727" depart="141.25">
        <route edges="-E4 E0 E6"/>
    </vehicle>
    <vehicle id="veh501" depart="141.71">
        <route edges="-E13 -E12 -E8 E6"/>
    </vehicle>
    <vehicle id="veh587" depart="144.02">
        <route edges="-E14 -E8 E6"/>
    </vehicle>
    <vehicle id="veh127" depart="147.02">
        <route edges="-E4 E1 E2"/>
    </vehicle>
    <vehicle id="veh663" depart="147.38">
        <route edges="-E13 -E12 -E8 E6"/>
    </vehicle>
    <vehicle id="veh267" depart="149.27">
        <route edges="-E10 -E7 E5 E2"/>
    </vehicle>
    <vehicle id="veh787" depart="165.68">
        <route edges="-E14 -E8 E7 E10"/>
    </vehicle>
    <vehicle id="veh1092" depart="167.52">
        <route edges="-E6 E5 -E1 E0 E6"/>
    </vehicle>
    <vehicle id="veh930" depart="172.19">
        <route edges="-E6 E8 E12 E13"/>
    </vehicle>
    <vehicle id="veh295" depart="172.24">
        <route edges="-E10 -E7 E5 E2"/>
    </vehicle>
    <vehicle id="veh388" depart="174.15">
        <route edges="-E2 -E1 E0 E5 E2"/>
    </vehicle>
    <vehicle id="veh729" depart="174.44">
        <route edges="-E6 E8 E14"/>
    </vehicle>
    <vehicle id="veh890" depart="177.32">
        <route edges="-E9 E11 -E12 -E8 E7 E9"/>
    </vehicle>
    <vehicle id="veh624" depart="179.86">
        <route edges="-E9 -E7 E5 E2"/>
    </vehicle>
    <vehicle id="veh208" depart="180.86">
        <route edges="-E2 -E1 E4"/>
    </vehicle>
    <vehicle id="veh741" depart="181.42">
        <route edges="-E14 -E8 E7 E10"/>
    </vehicle>
    <vehicle id="veh188" depart="183.73">
        <route edges="-E4 E0 E7 E10"/>
    </vehicle>
    <vehicle id="veh1054" depart="187.62">
        <route edges="-E9 E10"/>
    </vehicle>
    <vehicle id="veh160" depart="190.29">
        <route edges="-E10 -E7 E5 E2"/>
    </vehicle>
    <vehicle id="veh90" depart="192.96">
        <route edges="-E6 -E0 E4"/>
    </vehicle>
    <vehicle id="veh113" depart="194.85">
        <route edges="-E4 E0 E7 E10"/>
    </vehicle>
    <vehicle id="veh940" depart="198.34">
        <route edges="-E4 E0 E7 E11 E13"/>
    </vehicle>
    <vehicle id="veh702" depart="201.86">
        <route edges="-E13 -E12 -E3 -E1 E4"/>
    </vehicle>
    <vehicle id="veh39" depart="202.14">
        <route edges="-E4 E0 E7 E10"/>
    </vehicle>
    <vehicle id="veh1100" depart="204.59">
        <route edges="-E9 E11 E13"/>
    </vehicle>
    <vehicle id="veh110" depart="206.98">
        <route edges="-E9 -E7 E6"/>
    </vehicle>
    <vehicle id="veh809" depart="207.50">
        <route edges="-E6 E7 E10"/>
    </vehicle>
    <vehicle id="veh545" depart="207.86">
        <route edges="-E13 -E12 -E8 E7 E11 E13"/>
    </vehicle>
    <vehicle id="veh1112" depart="210.82">
        <route edges="-E4 E0 E7 E11 E13"/>
    </vehicle>
    <vehicle id="veh1025" depart="215.33">
        <route edges="-E9 -E7 -E0 E4"/>
    </vehicle>
    <vehicle id="veh269" depart="215.78">
        <route edges="-E13 -E12 -E8 E7 E11 E13"/>
    </vehicle>
    <vehicle id="veh157" depart="216.83">
        <route edges="-E10 E9"/>
    </vehicle>
    <vehicle id="veh360" depart="218.68">
        <route edges="-E10 E9"/>
    </vehicle>
    <vehicle id="veh895" depart="220.08">
        <route edges="-E10 -E7 E5 E2"/>
    </vehicle>
    <vehicle id="veh1146" depart="221.37">
        <route edges="-E6 E8 E12 E13"/>
    </vehicle>
    <vehicle id="veh176" depart="223.96">
        <route edges="-E14 -E8 -E0 E4"/>
    </vehicle>
    <vehicle id="veh136" depart="226.58">
        <route edges="-E9 -E7 E6"/>
    </vehicle>
    <vehicle id="veh439" depart="232.99">
        <route edges="-E2 E3 E12 -E11 E9"/>
    </vehicle>
    <vehicle id="veh266" depart="234.46">
        <route edges="-E4 E0 E7 E10"/>
    </vehicle>
    <vehicle id="veh748" depart="234.81">
        <route edges="-E2 -E1 E0 E7 E10"/>
    </vehicle>
    <vehicle id="veh511" depart="235.61">
        <route edges="-E10 E11 E13"/>
    </vehicle>
    <vehicle id="veh623" depart="237.33">
        <route edges="-E2 E3 E12 E13"/>
    </vehicle>
    <vehicle id="veh1173" depart="238.85">
        <route edges="-E2 E3 E12 E13"/>
    </vehicle>
    <vehicle id="veh1172" depart="240.49">
        <route edges="-E10 E11 -E12 -E8 E7 E10"/>
    </vehicle>
    <vehicle id="veh1085" depart="241.72">
        <route edges="-E14 E12 E13"/>
    </vehicle>
    <vehicle id="veh362" depart="245.10">
        <route edges="-E6 E7 E9"/>
    </vehicle>
    <vehicle id="veh399" depart="245.36">
        <route edges="-E2 -E1 E0 E7 E10"/>
    </vehicle>
    <vehicle id="veh211" depart="246.16">
        <route edges="-E13 -E11 E10"/>
    </vehicle>
    <vehicle id="veh1195" depart="256.87">
        <route edges="-E9 -E7 E6"/>
    </vehicle>
    <vehicle id="veh728" depart="261.62">
        <route edges="-E2 E3 E14"/>
    </vehicle>
    <vehicle id="veh645" depart="266.59">
        <route edges="-E14 -E8 E6"/>
    </vehicle>
    <vehicle id="veh449" depart="267.89">
        <route edges="-E14 -E8 E6"/>
    </vehicle>
    <vehicle id="veh1027" depart="272.85">
        <route edges="-E2 E3 E14"/>
    </vehicle>
    <vehicle id="veh586" depart="276.62">
        <route edges="-E10 E11 E13"/>
    </vehicle>
    <vehicle id="veh710" depart="277.64">
        <route edges="-E13 -E11 E10"/>
    </vehicle>
    <vehicle id="veh952" depart="281.79">
        <route edges="-E14 -E8 E7 E10"/>
    </vehicle>
    <vehicle id="veh248" depart="282.03">
        <route edges="-E9 -E7 E6"/>
    </vehicle>
    <vehicle id="veh1005" depart="285.11">
        <route edges="-E14 -E3 E2"/>
    </vehicle>
    <vehicle id="veh5" depart="285.18">
        <route edges="-E9 E10"/>
    </vehicle>
    <vehicle id="veh733" depart="285.86">
        <route edges="-E14 E12 E13"/>
    </vehicle>
    <vehicle id="veh265" depart="287.16">
        <route edges="-E13 -E12 -E3 -E1 E4"/>
    </vehicle>
    <vehicle id="veh201" depart="288.53">
        <route edges="-E13 -E12 -E8 E6"/>
    </vehicle>
    <vehicle id="veh1053" depart="288.80">
        <route edges="-E9 E11 E13"/>
    </vehicle>
    <vehicle id="veh980" depart="289.26">
        <route edges="-E10 -E7 E5 E2"/>
    </vehicle>
    <vehicle id="veh565" depart="289.38">
        <route edges="-E4 E0 E8 E14"/>
    </vehicle>
    <vehicle id="veh349" depart="291.15">
        <route edges="-E2 -E1 E0 E7 E10"/>
    </vehicle>
    <vehicle id="veh431" depart="296.83">
        <route edges="-E2 -E1 E0 E7 E10"/>
    </vehicle>
    <vehicle id="veh172" depart="297.36">
        <route edges="-E10 E11 E13"/>
    </vehicle>
    <vehicle id="veh864" depart="301.76">
        <route edges="-E9 E11 E13"/>
    </vehicle>
    <vehicle id="veh216" depart="302.28">
        <route edges="-E4 E0 E7 E10"/>
    </vehicle>
    <vehicle id="veh982" depart="303.99">
        <route edges="-E2 E3 -E8 E6"/>
    </vehicle>
    <vehicle id="veh596" depart="304.66">
        <route edges="-E14 -E8 E6"/>
    </vehicle>
    <vehicle id="veh506" depart="308.07">
        <route edges="-E9 -E7 E5 E2"/>
    </vehicle>
    <vehicle id="veh567" depart="309.66">
        <route edges="-E10 E11 E13"/>
    </vehicle>
    <vehicle id="veh451" depart="311.21">
        <route edges="-E10 -E7 E6"/>
    </vehicle>
    <vehicle id="veh1115" depart="311.29">
        <route edges="-E6 E5 -E1 E0 E6"/>
    </vehicle>
    <vehicle id="veh649" depart="314.91">
        <route edges="-E2 E3 E12 E13"/>
    </vehicle>
    <vehicle id="veh318" depart="315.67">
        <route edges="-E6 E7 E9"/>
    </vehicle>
    <vehicle id="veh681" depart="318.11">
        <route edges="-E14 E12 E13"/>
    </vehicle>
    <vehicle id="veh687" depart="326.04">
        <route edges="-E6 -E0 E4"/>
    </vehicle>
    <vehicle id="veh1007" depart="327.01">
        <route edges="-E4 E0 E6"/>
    </vehicle>
    <vehicle id="veh281" depart="330.52">
        <route edges="-E14 E12 -E11 E9"/>
    </vehicle>
    <vehicle id="veh119" depart="331.37">
        <route edges="-E10 E9"/>
    </vehicle>
    <vehicle id="veh1142" depart="335.92">
        <route edges="-E2 E3 -E8 E6"/>
    </vehicle>
    <vehicle id="veh262" depart="339.87">
        <route edges="-E14 -E8 -E0 E4"/>
    </vehicle>
    <vehicle id="veh1021" depart="343.56">
        <route edges="-E13 -E12 -E8 E7 E11 E13"/>
    </vehicle>
    <vehicle id="veh989" depart="347.10">
        <route edges="-E13 -E12 E14"/>
    </vehicle>
    <vehicle id="veh744" depart="352.48">
        <route edges="-E4 E0 E6"/>
    </vehicle>
    <vehicle id="veh852" depart="358.09">
        <route edges="-E14 -E8 -E0 E4"/>
    </vehicle>
    <vehicle id="veh45" depart="359.23">
        <route edges="-E10 E11 E13"/>
    </vehicle>
    <vehicle id="veh199" depart="360.20">
        <route edges="-E4 E0 E6"/>
    </vehicle>
    <vehicle id="veh879" depart="365.27">
        <route edges="-E14 -E8 E7 E10"/>
    </vehicle>
    <vehicle id="veh189" depart="366.76">
        <route edges="-E14 -E8 E7 E10"/>
    </vehicle>
    <vehicle id="veh60" depart="367.74">
        <route edges="-E2 E3 E12 -E11 E9"/>
    </vehicle>
    <vehicle id="veh225" depart="367.92">
        <route edges="-E2 -E1 E0 E7 E10"/>
    </vehicle>
    <vehicle id="veh6" depart="368.31">
        <route edges="-E13 -E12 -E8 E7 E11 E13"/>
    </vehicle>
    <vehicle id="veh1114" depart="368.48">
        <route edges="-E9 E11 E13"/>
    </vehicle>
    <vehicle id="veh82" depart="369.23">
        <route edges="-E6 E7 E10"/>
    </vehicle>
    <vehicle id="veh95" depart="370.86">
        <route edges="-E4 E0 E7 E10"/>
    </vehicle>
    <vehicle id="veh963" depart="372.84">
        <route edges="-E2 E3 E12 E13"/>
    </vehicle>
    <vehicle id="veh106" depart="375.47">
        <route edges="-E4 E0 E7 E11 E13"/>
    </vehicle>
    <vehicle id="veh141" depart="379.43">
        <route edges="-E2 -E1 E0 E7 E10"/>
    </vehicle>
    <vehicle id="veh405" depart="387.80">
        <route edges="-E13 -E12 -E8 E7 E11 E13"/>
    </vehicle>
    <vehicle id="veh508" depart="387.93">
        <route edges="-E10 -E7 E5 E2"/>
    </vehicle>
    <vehicle id="veh282" depart="391.17">
        <route edges="-E13 -E11 E9"/>
    </vehicle>
    <vehicle id="veh284" depart="394.47">
        <route edges="-E4 E0 E7 E11 E13"/>
    </vehicle>
    <vehicle id="veh396" depart="396.03">
        <route edges="-E10 E11 -E12 -E8 E7 E10"/>
    </vehicle>
    <vehicle id="veh857" depart="397.17">
        <route edges="-E4 E0 E7 E10"/>
    </vehicle>
    <vehicle id="veh668" depart="403.81">
        <route edges="-E14 -E8 E6"/>
    </vehicle>
    <vehicle id="veh1081" depart="404.36">
        <route edges="-E10 -E7 E6"/>
    </vehicle>
    <vehicle id="veh1035" depart="405.24">
        <route edges="-E14 -E8 E7 E10"/>
    </vehicle>
    <vehicle id="veh1096" depart="406.75">
        <route edges="-E14 -E8 E6"/>
    </vehicle>
    <vehicle id="veh946" depart="407.58">
        <route edges="-E4 E0 E7 E10"/>
    </vehicle>
    <vehicle id="veh824" depart="408.56">
        <route edges="-E14 E12 E13"/>
    </vehicle>
    <vehicle id="veh430" depart="411.13">
        <route edges="-E14 -E8 E6"/>
    </vehicle>
    <vehicle id="veh1004" depart="416.55">
        <route edges="-E2 E3 E14"/>
    </vehicle>
    <vehicle id="veh751" depart="421.00">
        <route edges="-E13 -E12 -E8 E7 E11 E13"/>
    </vehicle>
    <vehicle id="veh734" depart="421.09">
        <route edges="-E9 E11 E13"/>
    </vehicle>
    <vehicle id="veh566" depart="424.42">
        <route edges="-E2 E3 E12 E13"/>
    </vehicle>
    <vehicle id="veh492" depart="429.77">
        <route edges="-E6 E7 E10"/>
    </vehicle>
    <vehicle id="veh187" depart="430.22">
        <route edges="-E6 E8 E12 E13"/>
    </vehicle>
    <vehicle id="veh682" depart="431.31">
        <route edges="-E4 E0 E7 E11 E13"/>
    </vehicle>
    <vehicle id="veh825" depart="433.55">
        <route edges="-E9 E10"/>
    </vehicle>
    <vehicle id="veh65" depart="434.73">
        <route edges="-E10 E11 -E12 -E8 E7 E10"/>
    </vehicle>
    <vehicle id="veh693" depart="443.55">
        <route edges="-E6 E8 E14"/>
    </vehicle>
    <vehicle id="veh289" depart="443.61">
        <route edges="-E13 -E12 E14"/>
    </vehicle>
    <vehicle id="veh907" depart="448.53">
        <route edges="-E4 E0 E7 E11 E13"/>
    </vehicle>
    <vehicle id="veh686" depart="448.79">
        <route edges="-E14 -E8 E6"/>
    </vehicle>
    <vehicle id="veh131" depart="449.58">
        <route edges="-E6 E5 -E1 E0 E6"/>
    </vehicle>
    <vehicle id="veh1061" depart="450.92">
        <route edges="-E13 -E11 E10"/>
    </vehicle>
    <vehicle id="veh352" depart="451.47">
        <route edges="-E6 E7 E10"/>
    </vehicle>
    <vehicle id="veh801" depart="453.73">
        <route edges="-E10 E11 E13"/>
    </vehicle>
    <vehicle id="veh1106" depart="454.48">
        <route edges="-E10 E11 E13"/>
    </vehicle>
    <vehicle id="veh601" depart="455.12">
        <route edges="-E13 -E12 -E8 E7 E11 E13"/>
    </vehicle>
    <vehicle id="veh15" depart="455.52">
        <route edges="-E9 E11 -E12 -E8 E7 E9"/>
    </vehicle>
    <vehicle id="veh88" depart="455.90">
        <route edges="-E10 -E7 E6"/>
    </vehicle>
    <vehicle id="veh717" depart="458.97">
        <route edges="-E2 E3 -E8 E6"/>
    </vehicle>
    <vehicle id="veh1046" depart="461.52">
        <route edges="-E10 E11 E13"/>
    </vehicle>
    <vehicle id="veh974" depart="470.01">
        <route edges="-E10 E11 E13"/>
    </vehicle>
    <vehicle id="veh249" depart="471.86">
        <route edges="-E13 -E11 E10"/>
    </vehicle>
    <vehicle id="veh1042" depart="479.64">
        <route edges="-E13 -E12 E14"/>
    </vehicle>
    <vehicle id="veh486" depart="479.82">
        <route edges="-E9 -E7 -E0 E4"/>
    </vehicle>
    <vehicle id="veh1164" depart="480.40">
        <route edges="-E4 E0 E6"/>
    </vehicle>
    <vehicle id="veh231" depart="481.70">
        <route edges="-E2 E3 E14"/>
    </vehicle>
    <vehicle id="veh126" depart="483.38">
        <route edges="-E9 -E7 E6"/>
    </vehicle>
    <vehicle id="veh1099" depart="484.13">
        <route edges="-E4 E0 E7 E11 E13"/>
    </vehicle>
    <vehicle id="veh18" depart="484.14">
        <route edges="-E2 E3 E14"/>
    </vehicle>
    <vehicle id="veh525" depart="487.36">
        <route edges="-E9 E10"/>
    </vehicle>
    <vehicle id="veh1012" depart="487.39">
        <route edges="-E4 E0 E6"/>
    </vehicle>
    <vehicle id="veh263" depart="487.60">
        <route edges="-E2 E3 E12 E13"/>
    </vehicle>
    <vehicle id="veh570" depart="490.46">
        <route edges="-E2 -E1 E0 E7 E10"/>
    </vehicle>
    <vehicle id="veh258" depart="491.24">
        <route edges="-E13 -E11 E10"/>
    </vehicle>
    <vehicle id="veh285" depart="492.47">
        <route edges="-E2 E3 -E8 E6"/>
    </vehicle>
    <vehicle id="veh812" depart="497.50">
        <route edges="-E14 -E8 E7 E10"/>
    </vehicle>
    <vehicle id="veh844" depart="498.75">
        <route edges="-E13 -E12 -E8 E6"/>
    </vehicle>
    <vehicle id="veh67" depart="501.27">
        <route edges="-E10 E11 -E12 -E8 E7 E10"/>
    </vehicle>
    <vehicle id="veh754" depart="501.39">
        <route edges="-E14 E12 E13"/>
    </vehicle>
    <vehicle id="veh874" depart="502.95">
        <route edges="-E14 E12 E13"/>
    </vehicle>
    <vehicle id="veh618" depart="508.18">
        <route edges="-E13 -E12 -E8 E6"/>
    </vehicle>
    <vehicle id="veh395" depart="511.43">
        <route edges="-E10 E11 -E12 -E8 E7 E10"/>
    </vehicle>
    <vehicle id="veh307" depart="515.19">
        <route edges="-E10 E11 -E12 -E8 E7 E10"/>
    </vehicle>
    <vehicle id="veh819" depart="515.21">
        <route edges="-E14 -E8 -E0 E4"/>
    </vehicle>
    <vehicle id="veh1135" depart="521.79">
        <route edges="-E2 E3 -E8 E6"/>
    </vehicle>
    <vehicle id="veh286" depart="525.88">
        <route edges="-E6 E5 -E1 E0 E6"/>
    </vehicle>
    <vehicle id="veh184" depart="526.22">
        <route edges="-E14 -E8 E6"/>
    </vehicle>
    <vehicle id="veh1116" depart="526.84">
        <route edges="-E6 E5 -E1 E0 E6"/>
    </vehicle>
    <vehicle id="veh755" depart="527.23">
        <route edges="-E13 -E12 -E3 -E1 E4"/>
    </vehicle>
    <vehicle id="veh945" depart="531.49">
        <route edges="-E9 E11 E13"/>
    </vehicle>
    <vehicle id="veh190" depart="533.50">
        <route edges="-E9 E11 E13"/>
    </vehicle>
    <vehicle id="veh886" depart="533.89">
        <route edges="-E14 E12 E13"/>
    </vehicle>
    <vehicle id="veh1001" depart="536.09">
        <route edges="-E9 E10"/>
    </vehicle>
    <vehicle id="veh800" depart="536.77">
        <route edges="-E10 -E7 E6"/>
    </vehicle>
    <vehicle id="veh965" depart="539.02">
        <route edges="-E10 E11 E13"/>
    </vehicle>
    <vehicle id="veh542" depart="539.18">
        <route edges="-E13 -E12 -E8 E7 E11 E13"/>
    </vehicle>
    <vehicle id="veh243" depart="539.19">
        <route edges="-E13 -E11 E10"/>
    </vehicle>
    <vehicle id="veh739" depart="540.05">
        <route edges="-E14 -E8 E7 E10"/>
    </vehicle>
    <vehicle id="veh470" depart="544.46">
        <route edges="-E10 -E7 E6"/>
    </vehicle>
    <vehicle id="veh154" depart="547.99">
        <route edges="-E13 -E12 -E3 -E1 E4"/>
    </vehicle>
    <vehicle id="veh84" depart="557.72">
        <route edges="-E13 -E12 -E8 E7 E11 E13"/>
    </vehicle>
    <vehicle id="veh34" depart="560.76">
        <route edges="-E9 -E7 E6"/>
    </vehicle>
    <vehicle id="veh183" depart="561.89">
        <route edges="-E4 E1 E2"/>
    </vehicle>
    <vehicle id="veh72" depart="562.46">
        <route edges="-E2 -E1 E0 E5 E2"/>
    </vehicle>
    <vehicle id="veh516" depart="565.07">
        <route edges="-E6 E8 E12 E13"/>
    </vehicle>
    <vehicle id="veh153" depart="570.23">
        <route edges="-E4 E0 E6"/>
    </vehicle>
    <vehicle id="veh408" depart="576.30">
        <route edges="-E9 E11 E13"/>
    </vehicle>
    <vehicle id="veh1091" depart="576.86">
        <route edges="-E13 -E11 E10"/>
    </vehicle>
    <vehicle id="veh460" depart="580.20">
        <route edges="-E2 -E1 E0 E5 E2"/>
    </vehicle>
    <vehicle id="veh440" depart="582.17">
        <route edges="-E14 -E8 E7 E10"/>
    </vehicle>
    <vehicle id="veh1124" depart="584.56">
        <route edges="-E13 -E12 -E8 E7 E11 E13"/>
    </vehicle>
    <vehicle id="veh132" depart="588.30">
        <route edges="-E14 -E8 E7 E10"/>
    </vehicle>
    <vehicle id="veh865" depart="588.66">
        <route edges="-E6 E5 -E1 E0 E6"/>
    </vehicle>
    <vehicle id="veh1137" depart="589.36">
        <route edges="-E13 -E12 -E3 E2"/>
    </vehicle>
    <vehicle id="veh320" depart="590.83">
        <route edges="-E10 E11 E13"/>
    </vehicle>
    <vehicle id="veh1043" depart="593.19">
        <route edges="-E9 -E7 E6"/>
    </vehicle>
    <vehicle id="veh58" depart="593.86">
        <route edges="-E2 E3 E14"/>
    </vehicle>
    <vehicle id="veh1168" depart="595.15">
        <route edges="-E10 E11 E13"/>
    </vehicle>
    <vehicle id="veh530" depart="604.63">
        <route edges="-E6 E5 -E1 E0 E6"/>
    </vehicle>
    <vehicle id="veh642" depart="605.88">
        <route edges="-E10 E11 -E12 -E8 E7 E10"/>
    </vehicle>
    <vehicle id="veh990" depart="608.41">
        <route edges="-E9 -E7 -E0 E4"/>
    </vehicle>
    <vehicle id="veh999" depart="609.69">
        <route edges="-E13 -E12 -E8 E6"/>
    </vehicle>
    <vehicle id="veh552" depart="610.82">
        <route edges="-E14 -E3 E2"/>
    </vehicle>
    <vehicle id="veh1097" depart="612.37">
        <route edges="-E14 -E8 E6"/>
    </vehicle>
    <vehicle id="veh614" depart="614.45">
        <route edges="-E10 -E7 E6"/>
    </vehicle>
    <vehicle id="veh22" depart="615.36">
        <route edges="-E14 E12 E13"/>
    </vehicle>
    <vehicle id="veh1079" depart="616.66">
        <route edges="-E14 -E8 E5 E3 E14"/>
    </vehicle>
    <vehicle id="veh472" depart="620.73">
        <route edges="-E4 E0 E7 E11 E13"/>
    </vehicle>
    <vehicle id="veh274" depart="620.75">
        <route edges="-E13 -E11 E10"/>
    </vehicle>
    <vehicle id="veh535" depart="621.16">
        <route edges="-E6 E8 E14"/>
    </vehicle>
    <vehicle id="veh775" depart="621.37">
        <route edges="-E9 -E7 E5 E2"/>
    </vehicle>
    <vehicle id="veh480" depart="624.84">
        <route edges="-E14 E12 E13"/>
    </vehicle>
    <vehicle id="veh162" depart="625.49">
        <route edges="-E6 E5 -E1 E0 E6"/>
    </vehicle>
    <vehicle id="veh593" depart="626.70">
        <route edges="-E9 -E7 E6"/>
    </vehicle>
    <vehicle id="veh753" depart="629.52">
        <route edges="-E14 -E8 E5 E3 E14"/>
    </vehicle>
    <vehicle id="veh290" depart="630.59">
        <route edges="-E9 E10"/>
    </vehicle>
    <vehicle id="veh656" depart="632.13">
        <route edges="-E2 -E1 E0 E7 E10"/>
    </vehicle>
    <vehicle id="veh968" depart="634.94">
        <route edges="-E6 E8 E12 E13"/>
    </vehicle>
    <vehicle id="veh428" depart="637.78">
        <route edges="-E10 E11 -E12 -E8 E7 E10"/>
    </vehicle>
    <vehicle id="veh732" depart="640.17">
        <route edges="-E10 -E7 E6"/>
    </vehicle>
    <vehicle id="veh1188" depart="640.56">
        <route edges="-E9 E10"/>
    </vehicle>
    <vehicle id="veh606" depart="646.78">
        <route edges="-E6 E5 -E1 E0 E6"/>
    </vehicle>
    <vehicle id="veh608" depart="647.87">
        <route edges="-E13 -E12 E14"/>
    </vehicle>
    <vehicle id="veh540" depart="648.88">
        <route edges="-E6 E7 E10"/>
    </vehicle>
    <vehicle id="veh334" depart="652.57">
        <route edges="-E10 -E7 E8 E14"/>
    </vehicle>
    <vehicle id="veh482" depart="658.73">
        <route edges="-E2 E3 E12 E13"/>
    </vehicle>
    <vehicle id="veh898" depart="662.75">
        <route edges="-E6 E8 E14"/>
    </vehicle>
    <vehicle id="veh483" depart="670.72">
        <route edges="-E4 E0 E7 E9"/>
    </vehicle>
    <vehicle id="veh59" depart="671.30">
        <route edges="-E6 E8 E14"/>
    </vehicle>
    <vehicle id="veh908" depart="671.66">
        <route edges="-E13 -E12 -E3 E2"/>
    </vehicle>
    <vehicle id="veh888" depart="672.44">
        <route edges="-E4 E0 E8 E14"/>
    </vehicle>
    <vehicle id="veh571" depart="674.22">
        <route edges="-E10 -E7 E6"/>
    </vehicle>
    <vehicle id="veh1149" depart="679.56">
        <route edges="-E4 E0 E7 E10"/>
    </vehicle>
    <vehicle id="veh91" depart="681.69">
        <route edges="-E4 E0 E7 E10"/>
    </vehicle>
    <vehicle id="veh441" depart="682.13">
        <route edges="-E14 E12 -E11 E9"/>
    </vehicle>
    <vehicle id="veh398" depart="682.28">
        <route edges="-E14 E12 E13"/>
    </vehicle>
    <vehicle id="veh101" depart="683.15">
        <route edges="-E10 -E7 E6"/>
    </vehicle>
    <vehicle id="veh1132" depart="683.15">
        <route edges="-E13 -E11 E10"/>
    </vehicle>
    <vehicle id="veh368" depart="683.38">
        <route edges="-E10 -E7 E8 E14"/>
    </vehicle>
    <vehicle id="veh595" depart="686.88">
        <route edges="-E9 E10"/>
    </vehicle>
    <vehicle id="veh779" depart="687.99">
        <route edges="-E10 E11 -E12 -E8 E7 E10"/>
    </vehicle>
    <vehicle id="veh901" depart="690.21">
        <route edges="-E2 E3 -E8 E6"/>
    </vehicle>
    <vehicle id="veh529" depart="693.07">
        <route edges="-E6 -E0 E4"/>
    </vehicle>
    <vehicle id="veh740" depart="694.20">
        <route edges="-E6 E5 -E1 E0 E6"/>
    </vehicle>
    <vehicle id="veh509" depart="696.26">
        <route edges="-E10 E11 -E12 -E8 E7 E10"/>
    </vehicle>
    <vehicle id="veh85" depart="696.96">
        <route edges="-E10 E11 -E12 -E8 E7 E10"/>
    </vehicle>
    <vehicle id="veh578" depart="700.07">
        <route edges="-E14 -E3 E2"/>
    </vehicle>
    <vehicle id="veh780" depart="703.07">
        <route edges="-E10 E11 E13"/>
    </vehicle>
    <vehicle id="veh695" depart="704.83">
        <route edges="-E14 -E8 E6"/>
    </vehicle>
    <vehicle id="veh953" depart="708.24">
        <route edges="-E4 E0 E6"/>