<?xml version="1.0" encoding="UTF-8"?>

<!-- generated on 2026-06-15T16:41:06.447031+01:00 by Eclipse SUMO duarouter 1.27.0
<duarouterConfiguration xmlns:xsi="http://www.w3.org/2001/XMLSchema-instance" xsi:noNamespaceSchemaLocation="http://sumo.dlr.de/xsd/duarouterConfiguration.xsd">

    <input>
        <net-file value="C:\Users\RODO\Desktop\Sys auto - Projekt\src\City_map_2\city2.net.xml"/>
        <route-files value="C:\Users\RODO\AppData\Local\Temp\city2_train_7.trips.xml"/>
    </input>

    <output>
        <output-file value="C:\Users\RODO\Desktop\Sys auto - Projekt\src\City_map_2\city2_train_7.rou.xml"/>
    </output>

    <report>
        <no-warnings value="true"/>
        <ignore-errors value="true"/>
    </report>

    <random_number>
        <seed value="1007"/>
    </random_number>

</duarouterConfiguration>
-->

<routes xmlns:xsi="http://www.w3.org/2001/XMLSchema-instance" xsi:noNamespaceSchemaLocation="http://sumo.dlr.de/xsd/routes_file.xsd">
    <vehicle id="veh305" depart="2.05">
        <route edges="-E6 E7 E9"/>
    </vehicle>
    <vehicle id="veh907" depart="3.65">
        <route edges="-E10 E11 E13"/>
    </vehicle>
    <vehicle id="veh517" depart="5.44">
        <route edges="-E9 -E7 -E0 E4"/>
    </vehicle>
    <vehicle id="veh1154" depart="8.24">
        <route edges="-E10 E11 -E12 -E8 E7 E10"/>
    </vehicle>
    <vehicle id="veh1147" depart="14.16">
        <route edges="-E13 -E12 -E8 E7 E11 E13"/>
    </vehicle>
    <vehicle id="veh929" depart="16.24">
        <route edges="-E2 -E1 E0 E7 E10"/>
    </vehicle>
    <vehicle id="veh449" depart="21.07">
        <route edges="-E2 -E1 E0 E7 E10"/>
    </vehicle>
    <vehicle id="veh1038" depart="22.93">
        <route edges="-E10 E11 E13"/>
    </vehicle>
    <vehicle id="veh878" depart="25.24">
        <route edges="-E6 E7 E10"/>
    </vehicle>
    <vehicle id="veh389" depart="26.10">
        <route edges="-E14 -E8 E6"/>
    </vehicle>
    <vehicle id="veh617" depart="26.80">
        <route edges="-E9 E11 -E12 E14"/>
    </vehicle>
    <vehicle id="veh618" depart="28.56">
        <route edges="-E4 E0 E8 E14"/>
    </vehicle>
    <vehicle id="veh995" depart="30.07">
        <route edges="-E9 -E7 E6"/>
    </vehicle>
    <vehicle id="veh749" depart="31.13">
        <route edges="-E4 E0 E7 E11 E13"/>
    </vehicle>
    <vehicle id="veh814" depart="35.31">
        <route edges="-E6 E8 E12 E13"/>
    </vehicle>
    <vehicle id="veh1068" depart="38.13">
        <route edges="-E13 -E11 E10"/>
    </vehicle>
    <vehicle id="veh831" depart="38.31">
        <route edges="-E4 E0 E8 E14"/>
    </vehicle>
    <vehicle id="veh440" depart="39.02">
        <route edges="-E14 -E8 E6"/>
    </vehicle>
    <vehicle id="veh415" depart="39.18">
        <route edges="-E10 E11 -E12 -E8 E7 E10"/>
    </vehicle>
    <vehicle id="veh1037" depart="41.08">
        <route edges="-E6 E7 E10"/>
    </vehicle>
    <vehicle id="veh1160" depart="41.78">
        <route edges="-E13 -E12 -E8 E7 E11 E13"/>
    </vehicle>
    <vehicle id="veh1048" depart="42.45">
        <route edges="-E6 E8 E12 E13"/>
    </vehicle>
    <vehicle id="veh530" depart="45.79">
        <route edges="-E13 -E12 -E8 E7 E11 E13"/>
    </vehicle>
    <vehicle id="veh1162" depart="51.61">
        <route edges="-E2 E3 -E8 E6"/>
    </vehicle>
    <vehicle id="veh48" depart="52.24">
        <route edges="-E9 E11 E13"/>
    </vehicle>
    <vehicle id="veh1078" depart="56.55">
        <route edges="-E9 E11 E13"/>
    </vehicle>
    <vehicle id="veh1090" depart="58.99">
        <route edges="-E2 -E1 E0 E5 E2"/>
    </vehicle>
    <vehicle id="veh302" depart="63.26">
        <route edges="-E9 E11 -E12 E14"/>
    </vehicle>
    <vehicle id="veh698" depart="65.79">
        <route edges="-E14 -E3 E2"/>
    </vehicle>
    <vehicle id="veh147" depart="66.87">
        <route edges="-E9 E11 E13"/>
    </vehicle>
    <vehicle id="veh1158" depart="71.72">
        <route edges="-E13 -E11 E10"/>
    </vehicle>
    <vehicle id="veh273" depart="72.52">
        <route edges="-E4 E0 E8 E14"/>
    </vehicle>
    <vehicle id="veh640" depart="76.51">
        <route edges="-E14 -E8 -E0 E4"/>
    </vehicle>
    <vehicle id="veh228" depart="77.63">
        <route edges="-E2 -E1 E0 E7 E10"/>
    </vehicle>
    <vehicle id="veh960" depart="80.06">
        <route edges="-E9 -E7 E6"/>
    </vehicle>
    <vehicle id="veh633" depart="80.09">
        <route edges="-E4 E0 E7 E10"/>
    </vehicle>
    <vehicle id="veh959" depart="84.89">
        <route edges="-E2 -E1 E0 E7 E10"/>
    </vehicle>
    <vehicle id="veh948" depart="86.01">
        <route edges="-E14 -E8 E6"/>
    </vehicle>
    <vehicle id="veh709" depart="89.03">
        <route edges="-E6 E8 E12 E13"/>
    </vehicle>
    <vehicle id="veh1005" depart="90.39">
        <route edges="-E4 E0 E7 E11 E13"/>
    </vehicle>
    <vehicle id="veh200" depart="95.19">
        <route edges="-E6 -E0 E4"/>
    </vehicle>
    <vehicle id="veh935" depart="95.45">
        <route edges="-E14 -E8 E7 E10"/>
    </vehicle>
    <vehicle id="veh644" depart="96.48">
        <route edges="-E14 -E8 E6"/>
    </vehicle>
    <vehicle id="veh829" depart="98.52">
        <route edges="-E9 E11 E13"/>
    </vehicle>
    <vehicle id="veh1136" depart="99.68">
        <route edges="-E14 -E8 E7 E10"/>
    </vehicle>
    <vehicle id="veh762" depart="102.12">
        <route edges="-E13 -E12 -E8 E6"/>
    </vehicle>
    <vehicle id="veh487" depart="103.61">
        <route edges="-E2 E3 E12 E13"/>
    </vehicle>
    <vehicle id="veh375" depart="105.58">
        <route edges="-E14 -E8 E7 E10"/>
    </vehicle>
    <vehicle id="veh249" depart="107.71">
        <route edges="-E2 E3 E12 E13"/>
    </vehicle>
    <vehicle id="veh1014" depart="108.08">
        <route edges="-E10 -E7 -E0 E4"/>
    </vehicle>
    <vehicle id="veh676" depart="108.08">
        <route edges="-E6 E5 E2"/>
    </vehicle>
    <vehicle id="veh534" depart="108.82">
        <route edges="-E4 E0 E7 E9"/>
    </vehicle>
    <vehicle id="veh685" depart="110.17">
        <route edges="-E9 -E7 E6"/>
    </vehicle>
    <vehicle id="veh93" depart="111.30">
        <route edges="-E10 E11 -E12 -E8 E7 E10"/>
    </vehicle>
    <vehicle id="veh291" depart="115.66">
        <route edges="-E2 -E1 E4"/>
    </vehicle>
    <vehicle id="veh39" depart="121.22">
        <route edges="-E13 -E11 E10"/>
    </vehicle>
    <vehicle id="veh62" depart="122.78">
        <route edges="-E10 -E7 E6"/>
    </vehicle>
    <vehicle id="veh860" depart="124.91">
        <route edges="-E14 -E8 E7 E10"/>
    </vehicle>
    <vehicle id="veh755" depart="129.56">
        <route edges="-E10 E11 -E12 -E8 E7 E10"/>
    </vehicle>
    <vehicle id="veh434" depart="129.93">
        <route edges="-E6 E5 E2"/>
    </vehicle>
    <vehicle id="veh237" depart="130.76">
        <route edges="-E10 -E7 E6"/>
    </vehicle>
    <vehicle id="veh454" depart="132.09">
        <route edges="-E13 -E12 -E8 E7 E11 E13"/>
    </vehicle>
    <vehicle id="veh127" depart="133.77">
        <route edges="-E4 E0 E6"/>
    </vehicle>
    <vehicle id="veh437" depart="133.88">
        <route edges="-E10 -E7 -E0 E4"/>
    </vehicle>
    <vehicle id="veh557" depart="134.88">
        <route edges="-E2 E3 -E8 E6"/>
    </vehicle>
    <vehicle id="veh307" depart="135.21">
        <route edges="-E13 -E11 E10"/>
    </vehicle>
    <vehicle id="veh380" depart="136.60">
        <route edges="-E6 E7 E10"/>
    </vehicle>
    <vehicle id="veh966" depart="137.93">
        <route edges="-E13 -E12 -E8 E6"/>
    </vehicle>
    <vehicle id="veh674" depart="142.62">
        <route edges="-E10 -E7 -E0 E4"/>
    </vehicle>
    <vehicle id="veh708" depart="147.05">
        <route edges="-E9 E10"/>
    </vehicle>
    <vehicle id="veh863" depart="147.49">
        <route edges="-E14 -E8 E7 E10"/>
    </vehicle>
    <vehicle id="veh532" depart="148.67">
        <route edges="-E6 E5 -E1 E0 E6"/>
    </vehicle>
    <vehicle id="veh409" depart="156.06">
        <route edges="-E4 E0 E7 E11 E13"/>
    </vehicle>
    <vehicle id="veh209" depart="157.04">
        <route edges="-E10 -E7 E6"/>
    </vehicle>
    <vehicle id="veh119" depart="159.56">
        <route edges="-E14 E12 E13"/>
    </vehicle>
    <vehicle id="veh36" depart="162.45">
        <route edges="-E13 -E11 E10"/>
    </vehicle>
    <vehicle id="veh622" depart="165.26">
        <route edges="-E10 E11 E13"/>
    </vehicle>
    <vehicle id="veh141" depart="168.85">
        <route edges="-E9 E11 E13"/>
    </vehicle>
    <vehicle id="veh41" depart="170.84">
        <route edges="-E14 -E3 E2"/>
    </vehicle>
    <vehicle id="veh441" depart="172.68">
        <route edges="-E10 E11 -E12 -E8 E7 E10"/>
    </vehicle>
    <vehicle id="veh453" depart="174.56">
        <route edges="-E13 -E12 -E8 E6"/>
    </vehicle>
    <vehicle id="veh316" depart="179.50">
        <route edges="-E10 E11 E13"/>
    </vehicle>
    <vehicle id="veh86" depart="180.98">
        <route edges="-E9 E10"/>
    </vehicle>
    <vehicle id="veh766" depart="182.23">
        <route edges="-E4 E0 E7 E11 E13"/>
    </vehicle>
    <vehicle id="veh594" depart="182.86">
        <route edges="-E14 -E8 E6"/>
    </vehicle>
    <vehicle id="veh499" depart="184.39">
        <route edges="-E2 E3 -E8 E6"/>
    </vehicle>
    <vehicle id="veh109" depart="185.51">
        <route edges="-E14 E12 E13"/>
    </vehicle>
    <vehicle id="veh928" depart="186.63">
        <route edges="-E14 E12 E13"/>
    </vehicle>
    <vehicle id="veh392" depart="187.14">
        <route edges="-E9 E11 E13"/>
    </vehicle>
    <vehicle id="veh222" depart="188.40">
        <route edges="-E9 -E7 E5 E2"/>
    </vehicle>
    <vehicle id="veh462" depart="189.26">
        <route edges="-E6 -E0 E4"/>
    </vehicle>
    <vehicle id="veh542" depart="189.38">
        <route edges="-E13 -E11 E10"/>
    </vehicle>
    <vehicle id="veh142" depart="192.02">
        <route edges="-E9 E10"/>
    </vehicle>
    <vehicle id="veh816" depart="192.22">
        <route edges="-E13 -E11 E10"/>
    </vehicle>
    <vehicle id="veh761" depart="195.24">
        <route edges="-E10 -E7 E6"/>
    </vehicle>
    <vehicle id="veh992" depart="195.69">
        <route edges="-E14 -E8 E5 E3 E14"/>
    </vehicle>
    <vehicle id="veh632" depart="200.19">
        <route edges="-E6 E8 E12 E13"/>
    </vehicle>
    <vehicle id="veh915" depart="201.59">
        <route edges="-E6 E7 E10"/>
    </vehicle>
    <vehicle id="veh1189" depart="203.48">
        <route edges="-E14 -E8 E5 E3 E14"/>
    </vehicle>
    <vehicle id="veh1036" depart="204.65">
        <route edges="-E9 E10"/>
    </vehicle>
    <vehicle id="veh105" depart="204.94">
        <route edges="-E10 E11 E13"/>
    </vehicle>
    <vehicle id="veh444" depart="204.97">
        <route edges="-E9 E11 E13"/>
    </vehicle>
    <vehicle id="veh598" depart="208.14">
        <route edges="-E2 -E1 E0 E7 E10"/>
    </vehicle>
    <vehicle id="veh343" depart="208.35">
        <route edges="-E2 E3 E12 E13"/>
    </vehicle>
    <vehicle id="veh1167" depart="208.78">
        <route edges="-E6 E8 E12 E13"/>
    </vehicle>
    <vehicle id="veh186" depart="211.45">
        <route edges="-E6 E7 E9"/>
    </vehicle>
    <vehicle id="veh923" depart="211.63">
        <route edges="-E10 -E7 E5 E2"/>
    </vehicle>
    <vehicle id="veh113" depart="216.71">
        <route edges="-E2 -E1 E0 E5 E2"/>
    </vehicle>
    <vehicle id="veh445" depart="217.28">
        <route edges="-E10 E9"/>
    </vehicle>
    <vehicle id="veh348" depart="222.54">
        <route edges="-E2 E3 E12 E13"/>
    </vehicle>
    <vehicle id="veh666" depart="230.84">
        <route edges="-E10 E11 -E12 -E8 E7 E10"/>
    </vehicle>
    <vehicle id="veh577" depart="231.55">
        <route edges="-E4 E0 E7 E10"/>
    </vehicle>
    <vehicle id="veh898" depart="231.80">
        <route edges="-E14 -E8 E7 E10"/>
    </vehicle>
    <vehicle id="veh569" depart="233.58">
        <route edges="-E13 -E12 -E8 E7 E11 E13"/>
    </vehicle>
    <vehicle id="veh1104" depart="240.02">
        <route edges="-E10 E11 -E12 -E8 E7 E10"/>
    </vehicle>
    <vehicle id="veh965" depart="242.36">
        <route edges="-E6 E8 E12 E13"/>
    </vehicle>
    <vehicle id="veh1111" depart="246.82">
        <route edges="-E14 E12 -E11 E9"/>
    </vehicle>
    <vehicle id="veh486" depart="249.13">
        <route edges="-E6 -E0 E4"/>
    </vehicle>
    <vehicle id="veh478" depart="253.22">
        <route edges="-E9 E11 E13"/>
    </vehicle>
    <vehicle id="veh244" depart="258.57">
        <route edges="-E6 E7 E10"/>
    </vehicle>
    <vehicle id="veh1178" depart="260.14">
        <route edges="-E4 E0 E6"/>
    </vehicle>
    <vehicle id="veh854" depart="265.54">
        <route edges="-E6 E8 E12 E13"/>
    </vehicle>
    <vehicle id="veh377" depart="265.54">
        <route edges="-E14 -E8 -E0 E4"/>
    </vehicle>
    <vehicle id="veh1159" depart="266.94">
        <route edges="-E9 -E7 E6"/>
    </vehicle>
    <vehicle id="veh801" depart="270.12">
        <route edges="-E13 -E11 E9"/>
    </vehicle>
    <vehicle id="veh1012" depart="270.19">
        <route edges="-E2 -E1 E0 E5 E2"/>
    </vehicle>
    <vehicle id="veh382" depart="270.30">
        <route edges="-E13 -E12 -E8 E7 E11 E13"/>
    </vehicle>
    <vehicle id="veh290" depart="270.48">
        <route edges="-E9 -E7 E6"/>
    </vehicle>
    <vehicle id="veh110" depart="271.11">
        <route edges="-E4 E0 E5 -E1 E4"/>
    </vehicle>
    <vehicle id="veh407" depart="271.32">
        <route edges="-E4 E0 E6"/>
    </vehicle>
    <vehicle id="veh8" depart="274.30">
        <route edges="-E10 E11 -E12 -E8 E7 E10"/>
    </vehicle>
    <vehicle id="veh896" depart="278.68">
        <route edges="-E6 E5 -E1 E0 E6"/>
    </vehicle>
    <vehicle id="veh970" depart="278.71">
        <route edges="-E14 -E8 E6"/>
    </vehicle>
    <vehicle id="veh406" depart="279.02">
        <route edges="-E6 E7 E10"/>
    </vehicle>
    <vehicle id="veh428" depart="279.29">
        <route edges="-E14 -E8 -E0 E4"/>
    </vehicle>
    <vehicle id="veh546" depart="281.88">
        <route edges="-E2 E3 E12 E13"/>
    </vehicle>
    <vehicle id="veh361" depart="284.61">
        <route edges="-E6 E5 -E1 E0 E6"/>
    </vehicle>
    <vehicle id="veh470" depart="285.91">
        <route edges="-E10 E11 E13"/>
    </vehicle>
    <vehicle id="veh560" depart="286.52">
        <route edges="-E6 E8 E12 E13"/>
    </vehicle>
    <vehicle id="veh610" depart="288.65">
        <route edges="-E13 -E12 -E8 E6"/>
    </vehicle>
    <vehicle id="veh589" depart="288.88">
        <route edges="-E9 -E7 E5 E2"/>
    </vehicle>
    <vehicle id="veh411" depart="290.39">
        <route edges="-E2 E3 E12 E13"/>
    </vehicle>
    <vehicle id="veh538" depart="291.67">
        <route edges="-E6 E7 E10"/>
    </vehicle>
    <vehicle id="veh372" depart="294.93">
        <route edges="-E9 E11 -E12 -E8 E7 E9"/>
    </vehicle>
    <vehicle id="veh283" depart="300.87">
        <route edges="-E14 -E8 E7 E10"/>
    </vehicle>
    <vehicle id="veh890" depart="300.96">
        <route edges="-E14 -E8 E6"/>
    </vehicle>
    <vehicle id="veh194" depart="303.17">
        <route edges="-E6 E8 E12 E13"/>
    </vehicle>
    <vehicle id="veh47" depart="304.20">
        <route edges="-E2 E3 -E8 E6"/>
    </vehicle>
    <vehicle id="veh645" depart="307.25">
        <route edges="-E10 -E7 E6"/>
    </vehicle>
    <vehicle id="veh672" depart="310.88">
        <route edges="-E2 E3 E12 E13"/>
    </vehicle>
    <vehicle id="veh330" depart="311.37">
        <route edges="-E2 -E1 E0 E7 E10"/>
    </vehicle>
    <vehicle id="veh114" depart="312.16">
        <route edges="-E13 -E12 -E8 E7 E11 E13"/>
    </vehicle>
    <vehicle id="veh776" depart="317.12">
        <route edges="-E14 E12 E13"/>
    </vehicle>
    <vehicle id="veh692" depart="318.32">
        <route edges="-E2 -E1 E0 E7 E10"/>
    </vehicle>
    <vehicle id="veh1182" depart="318.85">
        <route edges="-E14 -E8 E7 E10"/>
    </vehicle>
    <vehicle id="veh566" depart="321.04">
        <route edges="-E10 E11 -E12 -E8 E7 E10"/>
    </vehicle>
    <vehicle id="veh1015" depart="321.34">
        <route edges="-E4 E0 E7 E10"/>
    </vehicle>
    <vehicle id="veh419" depart="325.68">
        <route edges="-E2 -E1 E0 E7 E10"/>
    </vehicle>
    <vehicle id="veh551" depart="328.08">
        <route edges="-E13 -E12 -E8 E6"/>
    </vehicle>
    <vehicle id="veh477" depart="333.60">
        <route edges="-E9 E10"/>
    </vehicle>
    <vehicle id="veh341" depart="335.85">
        <route edges="-E6 E8 E12 E13"/>
    </vehicle>
    <vehicle id="veh103" depart="338.34">
        <route edges="-E2 E3 E12 E13"/>
    </vehicle>
    <vehicle id="veh233" depart="339.72">
        <route edges="-E2 -E1 E4"/>
    </vehicle>
    <vehicle id="veh744" depart="343.62">
        <route edges="-E2 E3 -E8 E6"/>
    </vehicle>
    <vehicle id="veh468" depart="344.55">
        <route edges="-E2 -E1 E0 E7 E10"/>
    </vehicle>
    <vehicle id="veh84" depart="344.98">
        <route edges="-E14 -E3 E2"/>
    </vehicle>
    <vehicle id="veh1180" depart="357.74">
        <route edges="-E13 -E12 -E8 E6"/>
    </vehicle>
    <vehicle id="veh250" depart="360.57">
        <route edges="-E13 -E12 -E8 E7 E11 E13"/>
    </vehicle>
    <vehicle id="veh123" depart="362.49">
        <route edges="-E10 -E7 E6"/>
    </vehicle>
    <vehicle id="veh179" depart="362.53">
        <route edges="-E2 E3 E12 -E11 E9"/>
    </vehicle>
    <vehicle id="veh5" depart="363.26">
        <route edges="-E13 -E11 E10"/>
    </vehicle>
    <vehicle id="veh9" depart="364.08">
        <route edges="-E10 E11 -E12 -E8 E7 E10"/>
    </vehicle>
    <vehicle id="veh799" depart="365.76">
        <route edges="-E4 E0 E6"/>
    </vehicle>
    <vehicle id="veh702" depart="368.79">
        <route edges="-E4 E0 E7 E11 E13"/>
    </vehicle>
    <vehicle id="veh159" depart="370.51">
        <route edges="-E6 E8 E12 E13"/>
    </vehicle>
    <vehicle id="veh877" depart="374.13">
        <route edges="-E6 E7 E9"/>
    </vehicle>
    <vehicle id="veh710" depart="374.60">
        <route edges="-E6 E8 E12 E13"/>
    </vehicle>
    <vehicle id="veh787" depart="377.34">
        <route edges="-E10 -E7 E5 E2"/>
    </vehicle>
    <vehicle id="veh548" depart="378.45">
        <route edges="-E14 -E8 E7 E10"/>
    </vehicle>
    <vehicle id="veh1054" depart="379.27">
        <route edges="-E10 E11 -E12 -E8 E7 E10"/>
    </vehicle>
    <vehicle id="veh426" depart="379.29">
        <route edges="-E14 -E8 -E0 E4"/>
    </vehicle>
    <vehicle id="veh148" depart="379.29">
        <route edges="-E9 E11 E13"/>
    </vehicle>
    <vehicle id="veh694" depart="380.33">
        <route edges="-E9 E11 E13"/>
    </vehicle>
    <vehicle id="veh969" depart="382.56">
        <route edges="-E9 E11 -E12 -E8 E7 E9"/>
    </vehicle>
    <vehicle id="veh88" depart="383.99">
        <route edges="-E6 E7 E10"/>
    </vehicle>
    <vehicle id="veh424" depart="386.56">
        <route edges="-E9 -E7 E6"/>
    </vehicle>
    <vehicle id="veh745" depart="386.63">
        <route edges="-E6 E7 E9"/>
    </vehicle>
    <vehicle id="veh1171" depart="392.51">
        <route edges="-E4 E0 E7 E10"/>
    </vehicle>
    <vehicle id="veh431" depart="393.86">
        <route edges="-E2 E3 E12 E13"/>
    </vehicle>
    <vehicle id="veh533" depart="394.27">
        <route edges="-E13 -E12 -E8 E6"/>
    </vehicle>
    <vehicle id="veh189" depart="397.08">
        <route edges="-E4 E0 E6"/>
    </vehicle>
    <vehicle id="veh315" depart="399.84">
        <route edges="-E9 E11 E13"/>
    </vehicle>
    <vehicle id="veh900" depart="400.19">
        <route edges="-E2 E3 E12 E13"/>
    </vehicle>
    <vehicle id="veh947" depart="404.00">
        <route edges="-E10 E11 -E12 -E8 E7 E10"/>
    </vehicle>
    <vehicle id="veh806" depart="409.29">
        <route edges="-E9 E11 E13"/>
    </vehicle>
    <vehicle id="veh30" depart="416.83">
        <route edges="-E14 -E8 E6"/>
    </vehicle>
    <vehicle id="veh100" depart="420.26">
        <route edges="-E13 -E12 -E8 E7 E11 E13"/>
    </vehicle>
    <vehicle id="veh759" depart="425.28">
        <route edges="-E2 E3 E12 -E11 E9"/>
    </vehicle>
    <vehicle id="veh720" depart="426.30">
        <route edges="-E14 -E8 E6"/>
    </vehicle>
    <vehicle id="veh648" depart="427.13">
        <route edges="-E10 E11 -E12 -E8 E7 E10"/>
    </vehicle>
    <vehicle id="veh886" depart="427.73">
        <route edges="-E2 E3 -E8 E6"/>
    </vehicle>
    <vehicle id="veh398" depart="431.42">
        <route edges="-E2 E3 -E8 E6"/>
    </vehicle>
    <vehicle id="veh15" depart="432.54">
        <route edges="-E14 E12 E13"/>
    </vehicle>
    <vehicle id="veh699" depart="445.96">
        <route edges="-E14 E12 E13"/>
    </vehicle>
    <vehicle id="veh312" depart="446.04">
        <route edges="-E6 E7 E9"/>
    </vehicle>
    <vehicle id="veh350" depart="446.39">
        <route edges="-E6 E7 E10"/>
    </vehicle>
    <vehicle id="veh1169" depart="450.90">
        <route edges="-E14 E12 E13"/>
    </vehicle>
    <vehicle id="veh998" depart="455.20">
        <route edges="-E13 -E11 E9"/>
    </vehicle>
    <vehicle id="veh1062" depart="459.14">
        <route edges="-E9 -E7 -E0 E4"/>
    </vehicle>
    <vehicle id="veh556" depart="460.81">
        <route edges="-E2 E3 -E8 E6"/>
    </vehicle>
    <vehicle id="veh354" depart="463.32">
        <route edges="-E13 -E12 E14"/>
    </vehicle>
    <vehicle id="veh650" depart="466.78">
        <route edges="-E10 -E7 E5 E2"/>
    </vehicle>
    <vehicle id="veh781" depart="468.78">
        <route edges="-E2 E3 -E8 E6"/>
    </vehicle>
    <vehicle id="veh1134" depart="471.23">
        <route edges="-E10 E11 -E12 -E8 E7 E10"/>
    </vehicle>
    <vehicle id="veh193" depart="477.62">
        <route edges="-E4 E0 E8 E14"/>
    </vehicle>
    <vehicle id="veh545" depart="478.30">
        <route edges="-E14 E12 E13"/>
    </vehicle>
    <vehicle id="veh292" depart="478.47">
        <route edges="-E6 E8 E12 E13"/>
    </vehicle>
    <vehicle id="veh85" depart="484.35">
        <route edges="-E14 -E8 E6"/>
    </vehicle>
    <vehicle id="veh1141" depart="491.16">
        <route edges="-E6 E7 E10"/>
    </vehicle>
    <vehicle id="veh572" depart="493.08">
        <route edges="-E9 -E7 E6"/>
    </vehicle>
    <vehicle id="veh700" depart="494.92">
        <route edges="-E6 E5 -E1 E0 E6"/>
    </vehicle>
    <vehicle id="veh971" depart="496.16">
        <route edges="-E9 -E7 E6"/>
    </vehicle>
    <vehicle id="veh1073" depart="496.83">
        <route edges="-E9 E10"/>
    </vehicle>
    <vehicle id="veh240" depart="498.37">
        <route edges="-E2 -E1 E0 E7 E10"/>
    </vehicle>
    <vehicle id="veh54" depart="498.45">
        <route edges="-E10 -E7 E8 E14"/>
    </vehicle>
    <vehicle id="veh938" depart="499.70">
        <route edges="-E6 E7 E10"/>
    </vehicle>
    <vehicle id="veh191" depart="499.75">
        <route edges="-E2 E3 -E8 E6"/>
    </vehicle>
    <vehicle id="veh731" depart="500.86">
        <route edges="-E10 E11 E13"/>
    </vehicle>
    <vehicle id="veh941" depart="501.31">
        <route edges="-E2 E3 E14"/>
    </vehicle>
    <vehicle id="veh333" depart="507.26">
        <route edges="-E6 E5 -E1 E0 E6"/>
    </vehicle>
    <vehicle id="veh881" depart="510.20">
        <route edges="-E13 -E12 -E8 E7 E11 E13"/>
    </vehicle>
    <vehicle id="veh1075" depart="514.80">
        <route edges="-E14 -E8 E7 E10"/>
    </vehicle>
    <vehicle id="veh1023" depart="515.27">
        <route edges="-E9 E11 E13"/>
    </vehicle>
    <vehicle id="veh266" depart="516.76">
        <route edges="-E6 E5 -E1 E0 E6"/>
    </vehicle>
    <vehicle id="veh57" depart="518.71">
        <route edges="-E13 -E11 E10"/>
    </vehicle>
    <vehicle id="veh296" depart="519.86">
        <route edges="-E6 E8 E12 E13"/>
    </vehicle>
    <vehicle id="veh132" depart="521.96">
        <route edges="-E9 E11 E13"/>
    </vehicle>
    <vehicle id="veh0" depart="522.11">
        <route edges="-E9 E11 E13"/>
    </vehicle>
    <vehicle id="veh803" depart="527.15">
        <route edges="-E6 E7 E10"/>
    </vehicle>
    <vehicle id="veh795" depart="529.68">
        <route edges="-E6 E5 -E1 E0 E6"/>
    </vehicle>
    <vehicle id="veh1" depart="532.00">
        <route edges="-E14 E12 -E11 E9"/>
    </vehicle>
    <vehicle id="veh301" depart="532.64">
        <route edges="-E9 E11 E13"/>
    </vehicle>
    <vehicle id="veh220" depart="533.33">
        <route edges="-E4 E0 E7 E10"/>
    </vehicle>
    <vehicle id="veh124" depart="533.33">
        <route edges="-E6 E7 E10"/>
    </vehicle>
    <vehicle id="veh70" depart="535.65">
        <route edges="-E9 E11 E13"/>
    </vehicle>
    <vehicle id="veh817" depart="538.54">
        <route edges="-E2 E3 -E8 E6"/>
    </vehicle>
    <vehicle id="veh1123" depart="542.57">
        <route edges="-E4 E0 E7 E9"/>
    </vehicle>
    <vehicle id="veh390" depart="544.74">
        <route edges="-E6 E5 -E1 E0 E6"/>
    </vehicle>
    <vehicle id="veh282" depart="545.65">
        <route edges="-E10 E11 -E12 -E8 E7 E10"/>
    </vehicle>
    <vehicle id="veh75" depart="546.39">
        <route edges="-E10 -E7 E6"/>
    </vehicle>
    <vehicle id="veh1070" depart="547.24">
        <route edges="-E6 E8 E12 E13"/>
    </vehicle>
    <vehicle id="veh581" depart="551.33">
        <route edges="-E14 E12 E13"/>
    </vehicle>
    <vehicle id="veh455" depart="551.65">
        <route edges="-E13 -E11 E10"/>
    </vehicle>
    <vehicle id="veh11" depart="552.29">
        <route edges="-E10 E11 -E12 -E8 E7 E10"/>
    </vehicle>
    <vehicle id="veh1004" depart="555.29">
        <route edges="-E10 -E7 -E0 E4"/>
    </vehicle>
    <vehicle id="veh1130" depart="555.70">
        <route edges="-E6 E5 -E1 E0 E6"/>
    </vehicle>
    <vehicle id="veh869" depart="556.53">
        <route edges="-E13 -E12 -E8 E6"/>
    </vehicle>
    <vehicle id="veh171" depart="559.47">
        <route edges="-E2 E3 E12 E13"/>
    </vehicle>
    <vehicle id="veh552" depart="560.90">
        <route edges="-E14 E12 E13"/>
    </vehicle>
    <vehicle id="veh66" depart="563.55">
        <route edges="-E14 -E3 E2"/>
    </vehicle>
    <vehicle id="veh1110" depart="565.74">
        <route edges="-E13 -E12 -E8 E7 E11 E13"/>
    </vehicle>
    <vehicle id="veh559" depart="565.89">
        <route edges="-E9 E10"/>
    </vehicle>
    <vehicle id="veh1063" depart="566.94">
        <route edges="-E6 E7 E10"/>
    </vehicle>
    <vehicle id="veh844" depart="570.98">
        <route edges="-E4 E0 E7 E10"/>
    </vehicle>
    <vehicle id="veh248" depart="571.82">
        <route edges="-E6 E5 -E1 E0 E6"/>
    </vehicle>
    <vehicle id="veh522" depart="574.95">
        <route edges="-E13 -E12 -E8 E7 E11 E13"/>
    </vehicle>
    <vehicle id="veh726" depart="578.75">
        <route edges="-E4 E0 E8 E14"/>
    </vehicle>
    <vehicle id="veh528" depart="581.32">
        <route edges="-E4 E0 E7 E11 E13"/>
    </vehicle>
    <vehicle id="veh931" depart="588.38">
        <route edges="-E14 -E3 E2"/>
    </vehicle>
    <vehicle id="veh2" depart="588.95">
        <route edges="-E4 E0 E6"/>
    </vehicle>
    <vehicle id="veh1148" depart="588.95">
        <route edges="-E4 E0 E7 E10"/>
    </vehicle>
    <vehicle id="veh1032" depart="593.58">
        <route edges="-E13 -E12 -E8 E7 E11 E13"/>
    </vehicle>
    <vehicle id="veh627" depart="593.87">
        <route edges="-E13 -E12 -E3 -E1 E4"/>
    </vehicle>
    <vehicle id="veh34" depart="598.24">
        <route edges="-E4 E0 E7 E11 E13"/>
    </vehicle>
    <vehicle id="veh539" depart="599.19">
        <route edges="-E4 E0 E6"/>
    </vehicle>
    <vehicle id="veh1087" depart="600.20">
        <route edges="-E4 E0 E7 E11 E13"/>
    </vehicle>
    <vehicle id="veh1089" depart="600.52">
        <route edges="-E10 -E7 E6"/>
    </vehicle>
    <vehicle id="veh715" depart="601.70">
        <route edges="-E6 E8 E14"/>
    </vehicle>
    <vehicle id="veh202" depart="605.14">
        <route edges="-E6 E7 E10"/>
    </vehicle>
    <vehicle id="veh526" depart="605.76">
        <route edges="-E2 -E1 E0 E7 E10"/>
    </vehicle>
    <vehicle id="veh258" depart="606.16">
        <route edges="-E4 E0 E7 E9"/>
    </vehicle>
    <vehicle id="veh190" depart="615.44">
        <route edges="-E2 -E1 E4"/>
    </vehicle>
    <vehicle id="veh841" depart="615.67">
        <route edges="-E2 -E1 E0 E7 E10"/>
    </vehicle>
    <vehicle id="veh964" depart="624.92">
        <route edges="-E2 E3 E14"/>
    </vehicle>
    <vehicle id="veh994" depart="626.73">
        <route edges="-E9 E11 E13"/>
    </vehicle>
    <vehicle id="veh1065" depart="631.31">
        <route edges="-E10 E11 E13"/>
    </vehicle>
    <vehicle id="veh172" depart="632.83">
        <route edges="-E9 -E7 E6"/>
    </vehicle>
    <vehicle id="veh294" depart="637.92">
        <route edges="-E10 E11 -E12 -E8 E7 E10"/>
    </vehicle>
    <vehicle id="veh131" depart="640.34">
        <route edges="-E13 -E12 -E8 E7 E11 E13"/>
    </vehicle>
    <vehicle id="veh38" depart="645.45">
        <route edges="-E13 -E12 -E3 -E1 E4"/>
    </vehicle>
    <vehicle id="veh842" depart="646.34">
        <route edges="-E14 -E8 -E0 E4"/>
    </vehicle>
    <vehicle id="veh511" depart="646.37">
        <route edges="-E2 -E1 E0 E7 E10"/>
    </vehicle>
    <vehicle id="veh812" depart="648.55">
        <route edges="-E13 -E12 -E8 E6"/>
    </vehicle>
    <vehicle id="veh779" depart="649.45">
        <route edges="-E9 E11 -E12 E14"/>
    </vehicle>
    <vehicle id="veh669" depart="650.29">
        <route edges="-E13 -E12 -E8 E6"/>
    </vehicle>
    <vehicle id="veh1008" depart="650.88">
        <route edges="-E9 E10"/>
    </vehicle>
    <vehicle id="veh540" depart="666.91">
        <route edges="-E9 -E7 E6"/>
    </vehicle>
    <vehicle id="veh1074" depart="667.95">
        <route edges="-E6 E7 E10"/>
    </vehicle>
    <vehicle id="veh18" depart="670.20">
        <route edges="-E9 E10"/>
    </vehicle>
    <vehicle id="veh765" depart="672.55">