<?xml version="1.0" encoding="UTF-8"?>

<!-- generated on 2026-06-13T16:47:52.564373+01:00 by Eclipse SUMO duarouter 1.26.0
<duarouterConfiguration xmlns:xsi="http://www.w3.org/2001/XMLSchema-instance" xsi:noNamespaceSchemaLocation="http://sumo.dlr.de/xsd/duarouterConfiguration.xsd">

    <input>
        <net-file value="C:\Users\rondo\Desktop\Sys auto projeekt\src\City_map_2\city2.net.xml"/>
        <route-files value="C:\Users\rondo\AppData\Local\Temp\city2_hard_train_7.trips.xml"/>
    </input>

    <output>
        <output-file value="C:\Users\rondo\Desktop\Sys auto projeekt\src\City_map_2\city2_hard_train_7.rou.xml"/>
    </output>

    <report>
        <no-warnings value="true"/>
        <ignore-errors value="true"/>
    </report>

    <random_number>
        <seed value="1007"/>
    </random_number>

</duarouterConfiguration>
-->

<routes xmlns:xsi="http://www.w3.org/2001/XMLSchema-instance" xsi:noNamespaceSchemaLocation="http://sumo.dlr.de/xsd/routes_file.xsd">
    <vehicle id="veh69" depart="22.75">
        <route edges="-E2 -E1 E0 E7 E10"/>
    </vehicle>
    <vehicle id="veh340" depart="45.46">
        <route edges="-E9 -E7 E5 E2"/>
    </vehicle>
    <vehicle id="veh176" depart="79.96">
        <route edges="-E9 E10"/>
    </vehicle>
    <vehicle id="veh1855" depart="84.34">
        <route edges="-E6 E8 E12 E13"/>
    </vehicle>
    <vehicle id="veh1593" depart="88.13">
        <route edges="-E2 E3 -E8 E6"/>
    </vehicle>
    <vehicle id="veh1744" depart="88.58">
        <route edges="-E14 -E8 E6"/>
    </vehicle>
    <vehicle id="veh1679" depart="102.70">
        <route edges="-E10 E11 -E12 -E8 E7 E10"/>
    </vehicle>
    <vehicle id="veh1556" depart="110.69">
        <route edges="-E4 E0 E6"/>
    </vehicle>
    <vehicle id="veh647" depart="112.48">
        <route edges="-E6 E7 E10"/>
    </vehicle>
    <vehicle id="veh413" depart="116.06">
        <route edges="-E13 -E12 -E3 E2"/>
    </vehicle>
    <vehicle id="veh1866" depart="136.91">
        <route edges="-E14 -E8 E7 E10"/>
    </vehicle>
    <vehicle id="veh1019" depart="149.78">
        <route edges="-E13 -E12 -E8 E6"/>
    </vehicle>
    <vehicle id="veh685" depart="153.16">
        <route edges="-E9 E10"/>
    </vehicle>
    <vehicle id="veh947" depart="158.49">
        <route edges="-E2 -E1 E0 E7 E10"/>
    </vehicle>
    <vehicle id="veh1566" depart="164.64">
        <route edges="-E6 -E0 E4"/>
    </vehicle>
    <vehicle id="veh17" depart="167.44">
        <route edges="-E13 -E12 -E3 -E1 E4"/>
    </vehicle>
    <vehicle id="veh1421" depart="182.02">
        <route edges="-E2 -E1 E0 E7 E10"/>
    </vehicle>
    <vehicle id="veh853" depart="182.33">
        <route edges="-E9 E10"/>
    </vehicle>
    <vehicle id="veh1449" depart="185.82">
        <route edges="-E2 E3 -E8 E6"/>
    </vehicle>
    <vehicle id="veh1476" depart="198.26">
        <route edges="-E4 E0 E7 E10"/>
    </vehicle>
    <vehicle id="veh1164" depart="222.52">
        <route edges="-E9 E11 E13"/>
    </vehicle>
    <vehicle id="veh303" depart="227.48">
        <route edges="-E6 E7 E10"/>
    </vehicle>
    <vehicle id="veh904" depart="237.22">
        <route edges="-E14 E12 -E11 E9"/>
    </vehicle>
    <vehicle id="veh1430" depart="241.51">
        <route edges="-E10 E11 E13"/>
    </vehicle>
    <vehicle id="veh1213" depart="242.96">
        <route edges="-E9 E11 E13"/>
    </vehicle>
    <vehicle id="veh294" depart="247.78">
        <route edges="-E4 E0 E7 E11 E13"/>
    </vehicle>
    <vehicle id="veh1446" depart="256.41">
        <route edges="-E10 -E7 E6"/>
    </vehicle>
    <vehicle id="veh1241" depart="263.03">
        <route edges="-E10 E11 -E12 -E8 E7 E10"/>
    </vehicle>
    <vehicle id="veh1937" depart="267.39">
        <route edges="-E4 E0 E7 E10"/>
    </vehicle>
    <vehicle id="veh1954" depart="274.32">
        <route edges="-E10 E11 -E12 -E8 E7 E10"/>
    </vehicle>
    <vehicle id="veh436" depart="298.94">
        <route edges="-E4 E0 E7 E11 E13"/>
    </vehicle>
    <vehicle id="veh1282" depart="302.10">
        <route edges="-E9 E11 E13"/>
    </vehicle>
    <vehicle id="veh722" depart="307.41">
        <route edges="-E9 E10"/>
    </vehicle>
    <vehicle id="veh214" depart="316.92">
        <route edges="-E10 E11 -E12 -E8 E7 E10"/>
    </vehicle>
    <vehicle id="veh1759" depart="325.76">
        <route edges="-E2 E3 -E8 E6"/>
    </vehicle>
    <vehicle id="veh777" depart="332.30">
        <route edges="-E10 E11 -E12 -E8 E7 E10"/>
    </vehicle>
    <vehicle id="veh1934" depart="339.18">
        <route edges="-E14 -E8 E6"/>
    </vehicle>
    <vehicle id="veh423" depart="342.99">
        <route edges="-E2 -E1 E0 E5 E2"/>
    </vehicle>
    <vehicle id="veh1011" depart="344.00">
        <route edges="-E13 -E12 -E8 E7 E11 E13"/>
    </vehicle>
    <vehicle id="veh178" depart="344.43">
        <route edges="-E4 E0 E7 E10"/>
    </vehicle>
    <vehicle id="veh1538" depart="367.42">
        <route edges="-E10 E11 E13"/>
    </vehicle>
    <vehicle id="veh1749" depart="374.47">
        <route edges="-E10 E11 E13"/>
    </vehicle>
    <vehicle id="veh345" depart="379.43">
        <route edges="-E6 E8 E12 E13"/>
    </vehicle>
    <vehicle id="veh1949" depart="383.30">
        <route edges="-E6 E7 E10"/>
    </vehicle>
    <vehicle id="veh1288" depart="387.95">
        <route edges="-E9 -E7 E6"/>
    </vehicle>
    <vehicle id="veh1386" depart="391.77">
        <route edges="-E6 E7 E10"/>
    </vehicle>
    <vehicle id="veh1673" depart="392.50">
        <route edges="-E10 E11 E13"/>
    </vehicle>
    <vehicle id="veh1359" depart="393.31">
        <route edges="-E10 E11 -E12 -E8 E7 E10"/>
    </vehicle>
    <vehicle id="veh1525" depart="394.51">
        <route edges="-E13 -E11 E10"/>
    </vehicle>
    <vehicle id="veh1513" depart="394.68">
        <route edges="-E10 -E7 E6"/>
    </vehicle>
    <vehicle id="veh1293" depart="397.05">
        <route edges="-E14 -E8 E7 E10"/>
    </vehicle>
    <vehicle id="veh1973" depart="398.97">
        <route edges="-E13 -E12 -E8 E6"/>
    </vehicle>
    <vehicle id="veh432" depart="404.23">
        <route edges="-E2 -E1 E0 E5 E2"/>
    </vehicle>
    <vehicle id="veh1436" depart="411.17">
        <route edges="-E2 E3 -E8 E6"/>
    </vehicle>
    <vehicle id="veh1094" depart="413.90">
        <route edges="-E14 E12 E13"/>
    </vehicle>
    <vehicle id="veh1714" depart="416.41">
        <route edges="-E2 E3 -E8 E6"/>
    </vehicle>
    <vehicle id="veh1486" depart="417.61">
        <route edges="-E13 -E11 E10"/>
    </vehicle>
    <vehicle id="veh1577" depart="418.29">
        <route edges="-E4 E0 E7 E11 E13"/>
    </vehicle>
    <vehicle id="veh953" depart="422.14">
        <route edges="-E2 -E1 E4"/>
    </vehicle>
    <vehicle id="veh985" depart="423.02">
        <route edges="-E9 E11 E13"/>
    </vehicle>
    <vehicle id="veh1489" depart="425.17">
        <route edges="-E14 -E8 E6"/>
    </vehicle>
    <vehicle id="veh1391" depart="429.13">
        <route edges="-E4 E0 E5 -E1 E4"/>
    </vehicle>
    <vehicle id="veh664" depart="429.51">
        <route edges="-E13 -E12 -E8 E7 E11 E13"/>
    </vehicle>
    <vehicle id="veh527" depart="431.78">
        <route edges="-E9 E11 E13"/>
    </vehicle>
    <vehicle id="veh147" depart="431.83">
        <route edges="-E14 E12 -E11 E9"/>
    </vehicle>
    <vehicle id="veh1171" depart="446.15">
        <route edges="-E9 -E7 E6"/>
    </vehicle>
    <vehicle id="veh1442" depart="450.00">
        <route edges="-E14 -E8 E6"/>
    </vehicle>
    <vehicle id="veh634" depart="455.61">
        <route edges="-E2 E3 -E8 E6"/>
    </vehicle>
    <vehicle id="veh1069" depart="457.09">
        <route edges="-E6 E8 E12 E13"/>
    </vehicle>
    <vehicle id="veh1979" depart="457.52">
        <route edges="-E13 -E12 -E8 E7 E11 E13"/>
    </vehicle>
    <vehicle id="veh351" depart="457.97">
        <route edges="-E10 E11 -E12 -E8 E7 E10"/>
    </vehicle>
    <vehicle id="veh655" depart="462.21">
        <route edges="-E6 E8 E12 E13"/>
    </vehicle>
    <vehicle id="veh1159" depart="462.26">
        <route edges="-E9 -E7 E6"/>
    </vehicle>
    <vehicle id="veh758" depart="463.06">
        <route edges="-E9 -E7 E6"/>
    </vehicle>
    <vehicle id="veh587" depart="466.72">
        <route edges="-E14 E12 -E11 E9"/>
    </vehicle>
    <vehicle id="veh419" depart="475.22">
        <route edges="-E9 E11 E13"/>
    </vehicle>
    <vehicle id="veh1820" depart="476.12">
        <route edges="-E2 E3 E12 E13"/>
    </vehicle>
    <vehicle id="veh550" depart="489.26">
        <route edges="-E13 -E12 -E8 E6"/>
    </vehicle>
    <vehicle id="veh1242" depart="491.29">
        <route edges="-E9 E11 -E12 -E8 E7 E9"/>
    </vehicle>
    <vehicle id="veh1723" depart="497.20">
        <route edges="-E6 E5 -E1 E0 E6"/>
    </vehicle>
    <vehicle id="veh1119" depart="498.09">
        <route edges="-E10 -E7 E8 E14"/>
    </vehicle>
    <vehicle id="veh1701" depart="505.94">
        <route edges="-E14 E12 E13"/>
    </vehicle>
    <vehicle id="veh987" depart="508.90">
        <route edges="-E4 E0 E7 E10"/>
    </vehicle>
    <vehicle id="veh29" depart="510.87">
        <route edges="-E2 E3 -E8 E6"/>
    </vehicle>
    <vehicle id="veh1084" depart="511.94">
        <route edges="-E4 E0 E6"/>
    </vehicle>
    <vehicle id="veh1336" depart="515.72">
        <route edges="-E14 -E8 E7 E10"/>
    </vehicle>
    <vehicle id="veh1392" depart="518.95">
        <route edges="-E14 E12 E13"/>
    </vehicle>
    <vehicle id="veh1705" depart="520.00">
        <route edges="-E10 -E7 E6"/>
    </vehicle>
    <vehicle id="veh756" depart="522.23">
        <route edges="-E13 -E12 -E8 E7 E11 E13"/>
    </vehicle>
    <vehicle id="veh1706" depart="523.14">
        <route edges="-E2 E3 E12 E13"/>
    </vehicle>
    <vehicle id="veh1864" depart="530.77">
        <route edges="-E13 -E12 -E8 E6"/>
    </vehicle>
    <vehicle id="veh1622" depart="536.65">
        <route edges="-E14 -E8 E6"/>
    </vehicle>
    <vehicle id="veh1235" depart="536.96">
        <route edges="-E2 E3 E12 E13"/>
    </vehicle>
    <vehicle id="veh952" depart="538.25">
        <route edges="-E9 E10"/>
    </vehicle>
    <vehicle id="veh1190" depart="538.33">
        <route edges="-E14 -E8 E7 E10"/>
    </vehicle>
    <vehicle id="veh1400" depart="539.14">
        <route edges="-E6 E7 E10"/>
    </vehicle>
    <vehicle id="veh1286" depart="540.11">
        <route edges="-E4 E0 E6"/>
    </vehicle>
    <vehicle id="veh166" depart="542.46">
        <route edges="-E6 -E0 E4"/>
    </vehicle>
    <vehicle id="veh319" depart="544.03">
        <route edges="-E6 E5 -E1 E0 E6"/>
    </vehicle>
    <vehicle id="veh1055" depart="545.73">
        <route edges="-E14 -E8 E6"/>
    </vehicle>
    <vehicle id="veh677" depart="546.64">
        <route edges="-E2 -E1 E4"/>
    </vehicle>
    <vehicle id="veh1962" depart="547.99">
        <route edges="-E2 -E1 E0 E7 E10"/>
    </vehicle>
    <vehicle id="veh916" depart="548.85">
        <route edges="-E4 E0 E6"/>
    </vehicle>
    <vehicle id="veh1558" depart="550.52">
        <route edges="-E9 E10"/>
    </vehicle>
    <vehicle id="veh604" depart="552.87">
        <route edges="-E14 -E3 E2"/>
    </vehicle>
    <vehicle id="veh199" depart="553.63">
        <route edges="-E13 -E11 E10"/>
    </vehicle>
    <vehicle id="veh64" depart="554.53">
        <route edges="-E14 -E8 E7 E10"/>
    </vehicle>
    <vehicle id="veh651" depart="555.56">
        <route edges="-E6 E8 E12 E13"/>
    </vehicle>
    <vehicle id="veh1787" depart="557.99">
        <route edges="-E2 E3 -E8 E6"/>
    </vehicle>
    <vehicle id="veh977" depart="564.52">
        <route edges="-E14 -E8 E6"/>
    </vehicle>
    <vehicle id="veh1782" depart="565.67">
        <route edges="-E9 -E7 E6"/>
    </vehicle>
    <vehicle id="veh1245" depart="567.48">
        <route edges="-E4 E0 E7 E11 E13"/>
    </vehicle>
    <vehicle id="veh855" depart="568.22">
        <route edges="-E4 E0 E7 E9"/>
    </vehicle>
    <vehicle id="veh1719" depart="568.61">
        <route edges="-E4 E0 E7 E10"/>
    </vehicle>
    <vehicle id="veh103" depart="569.10">
        <route edges="-E14 E12 E13"/>
    </vehicle>
    <vehicle id="veh1999" depart="569.67">
        <route edges="-E6 E5 -E1 E0 E6"/>
    </vehicle>
    <vehicle id="veh1546" depart="570.77">
        <route edges="-E14 -E8 E5 E3 E14"/>
    </vehicle>
    <vehicle id="veh1680" depart="575.80">
        <route edges="-E10 E11 -E12 -E8 E7 E10"/>
    </vehicle>
    <vehicle id="veh1068" depart="576.76">
        <route edges="-E9 E11 E13"/>
    </vehicle>
    <vehicle id="veh1480" depart="577.39">
        <route edges="-E4 E0 E7 E10"/>
    </vehicle>
    <vehicle id="veh1638" depart="577.58">
        <route edges="-E2 -E1 E4"/>
    </vehicle>
    <vehicle id="veh1718" depart="577.86">
        <route edges="-E9 E11 E13"/>
    </vehicle>
    <vehicle id="veh122" depart="580.71">
        <route edges="-E2 E3 E12 E13"/>
    </vehicle>
    <vehicle id="veh308" depart="582.21">
        <route edges="-E6 E5 -E1 E0 E6"/>
    </vehicle>
    <vehicle id="veh1777" depart="583.17">
        <route edges="-E13 -E12 -E8 E6"/>
    </vehicle>
    <vehicle id="veh814" depart="585.66">
        <route edges="-E10 E11 -E12 -E8 E7 E10"/>
    </vehicle>
    <vehicle id="veh19" depart="588.22">
        <route edges="-E10 E11 -E12 -E8 E7 E10"/>
    </vehicle>
    <vehicle id="veh1333" depart="589.16">
        <route edges="-E13 -E11 E9"/>
    </vehicle>
    <vehicle id="veh1851" depart="589.92">
        <route edges="-E10 E11 -E12 -E8 E7 E10"/>
    </vehicle>
    <vehicle id="veh1624" depart="591.14">
        <route edges="-E13 -E12 -E8 E7 E11 E13"/>
    </vehicle>
    <vehicle id="veh492" depart="594.54">
        <route edges="-E4 E0 E5 -E1 E4"/>
    </vehicle>
    <vehicle id="veh1666" depart="596.14">
        <route edges="-E10 -E7 E8 E14"/>
    </vehicle>
    <vehicle id="veh709" depart="596.36">
        <route edges="-E2 E3 E12 E13"/>
    </vehicle>
    <vehicle id="veh1810" depart="600.14">
        <route edges="-E10 E11 E13"/>
    </vehicle>
    <vehicle id="veh913" depart="600.86">
        <route edges="-E4 E0 E7 E10"/>
    </vehicle>
    <vehicle id="veh789" depart="600.89">
        <route edges="-E9 E10"/>
    </vehicle>
    <vehicle id="veh834" depart="601.74">
        <route edges="-E14 E12 E13"/>
    </vehicle>
    <vehicle id="veh1982" depart="604.33">
        <route edges="-E4 E0 E6"/>
    </vehicle>
    <vehicle id="veh43" depart="606.41">
        <route edges="-E14 -E8 E6"/>
    </vehicle>
    <vehicle id="veh728" depart="610.49">
        <route edges="-E9 -E7 E6"/>
    </vehicle>
    <vehicle id="veh1605" depart="613.51">
        <route edges="-E14 -E8 E6"/>
    </vehicle>
    <vehicle id="veh1121" depart="616.26">
        <route edges="-E4 E0 E7 E10"/>
    </vehicle>
    <vehicle id="veh1672" depart="620.06">
        <route edges="-E6 E7 E10"/>
    </vehicle>
    <vehicle id="veh48" depart="621.96">
        <route edges="-E10 E9"/>
    </vehicle>
    <vehicle id="veh1420" depart="622.93">
        <route edges="-E14 -E8 -E0 E4"/>
    </vehicle>
    <vehicle id="veh1754" depart="623.25">
        <route edges="-E2 -E1 E0 E5 E2"/>
    </vehicle>
    <vehicle id="veh1932" depart="627.71">
        <route edges="-E2 -E1 E0 E7 E10"/>
    </vehicle>
    <vehicle id="veh347" depart="629.10">
        <route edges="-E9 E10"/>
    </vehicle>
    <vehicle id="veh1221" depart="629.22">
        <route edges="-E14 E12 E13"/>
    </vehicle>
    <vehicle id="veh557" depart="630.68">
        <route edges="-E10 -E7 -E0 E4"/>
    </vehicle>
    <vehicle id="veh1131" depart="633.79">
        <route edges="-E4 E0 E7 E10"/>
    </vehicle>
    <vehicle id="veh40" depart="639.51">
        <route edges="-E2 E3 -E8 E6"/>
    </vehicle>
    <vehicle id="veh59" depart="646.05">
        <route edges="-E4 E0 E7 E10"/>
    </vehicle>
    <vehicle id="veh1644" depart="646.85">
        <route edges="-E2 -E1 E0 E7 E10"/>
    </vehicle>
    <vehicle id="veh1977" depart="653.32">
        <route edges="-E10 E11 E13"/>
    </vehicle>
    <vehicle id="veh119" depart="655.53">
        <route edges="-E9 E11 -E12 E14"/>
    </vehicle>
    <vehicle id="veh1031" depart="656.65">
        <route edges="-E10 -E7 E6"/>
    </vehicle>
    <vehicle id="veh1838" depart="657.49">
        <route edges="-E13 -E11 E10"/>
    </vehicle>
    <vehicle id="veh644" depart="661.60">
        <route edges="-E13 -E11 E10"/>
    </vehicle>
    <vehicle id="veh1808" depart="663.22">
        <route edges="-E2 E3 E12 -E11 E9"/>
    </vehicle>
    <vehicle id="veh1283" depart="664.53">
        <route edges="-E14 -E8 E7 E10"/>
    </vehicle>
    <vehicle id="veh1548" depart="664.81">
        <route edges="-E6 E8 E12 E13"/>
    </vehicle>
    <vehicle id="veh1481" depart="667.35">
        <route edges="-E9 E10"/>
    </vehicle>
    <vehicle id="veh1163" depart="668.31">
        <route edges="-E10 E11 -E12 -E8 E7 E10"/>
    </vehicle>
    <vehicle id="veh551" depart="668.69">
        <route edges="-E10 E11 -E12 -E8 E7 E10"/>
    </vehicle>
    <vehicle id="veh1926" depart="669.42">
        <route edges="-E13 -E12 -E8 E6"/>
    </vehicle>
    <vehicle id="veh1674" depart="669.72">
        <route edges="-E14 -E8 E7 E10"/>
    </vehicle>
    <vehicle id="veh75" depart="670.77">
        <route edges="-E14 -E8 -E0 E4"/>
    </vehicle>
    <vehicle id="veh56" depart="672.25">
        <route edges="-E14 -E8 E6"/>
    </vehicle>
    <vehicle id="veh1597" depart="672.92">
        <route edges="-E4 E0 E5 -E1 E4"/>
    </vehicle>
    <vehicle id="veh1004" depart="674.81">
        <route edges="-E4 E0 E7 E11 E13"/>
    </vehicle>
    <vehicle id="veh1218" depart="675.84">
        <route edges="-E4 E0 E7 E10"/>
    </vehicle>
    <vehicle id="veh1153" depart="676.18">
        <route edges="-E13 -E11 E10"/>
    </vehicle>
    <vehicle id="veh1072" depart="678.70">
        <route edges="-E9 E10"/>
    </vehicle>
    <vehicle id="veh94" depart="681.00">
        <route edges="-E10 E11 E13"/>
    </vehicle>
    <vehicle id="veh1028" depart="681.24">
        <route edges="-E2 -E1 E0 E7 E10"/>
    </vehicle>
    <vehicle id="veh1575" depart="687.40">
        <route edges="-E9 E11 E13"/>
    </vehicle>
    <vehicle id="veh198" depart="689.12">
        <route edges="-E9 E11 E13"/>
    </vehicle>
    <vehicle id="veh318" depart="689.68">
        <route edges="-E2 E3 -E8 E6"/>
    </vehicle>
    <vehicle id="veh433" depart="692.55">
        <route edges="-E6 E7 E10"/>
    </vehicle>
    <vehicle id="veh1437" depart="693.74">
        <route edges="-E2 E3 E12 E13"/>
    </vehicle>
    <vehicle id="veh574" depart="694.85">
        <route edges="-E14 E12 E13"/>
    </vehicle>
    <vehicle id="veh1950" depart="697.04">
        <route edges="-E14 -E8 E7 E10"/>
    </vehicle>
    <vehicle id="veh1366" depart="698.13">
        <route edges="-E4 E0 E6"/>
    </vehicle>
    <vehicle id="veh191" depart="701.21">
        <route edges="-E4 E0 E6"/>
    </vehicle>
    <vehicle id="veh630" depart="703.54">
        <route edges="-E14 -E8 E7 E10"/>
    </vehicle>
    <vehicle id="veh1576" depart="703.75">
        <route edges="-E9 E10"/>
    </vehicle>
    <vehicle id="veh208" depart="706.85">
        <route edges="-E4 E0 E6"/>
    </vehicle>
    <vehicle id="veh1786" depart="707.28">
        <route edges="-E2 E3 -E8 E6"/>
    </vehicle>
    <vehicle id="veh1821" depart="707.57">
        <route edges="-E10 E11 -E12 -E8 E7 E10"/>
    </vehicle>
    <vehicle id="veh158" depart="708.25">
        <route edges="-E10 E11 E13"/>
    </vehicle>
    <vehicle id="veh940" depart="708.51">
        <route edges="-E13 -E11 E9"/>
    </vehicle>
    <vehicle id="veh907" depart="711.56">
        <route edges="-E2 E3 E12 E13"/>
    </vehicle>
    <vehicle id="veh283" depart="713.65">
        <route edges="-E4 E0 E6"/>
    </vehicle>
    <vehicle id="veh521" depart="714.25">
        <route edges="-E6 E8 E12 E13"/>
    </vehicle>
    <vehicle id="veh420" depart="714.79">
        <route edges="-E4 E0 E7 E11 E13"/>
    </vehicle>
    <vehicle id="veh321" depart="715.16">
        <route edges="-E14 E12 -E11 E9"/>
    </vehicle>
    <vehicle id="veh1232" depart="715.24">
        <route edges="-E14 -E8 E6"/>
    </vehicle>
    <vehicle id="veh1802" depart="715.30">
        <route edges="-E10 E11 -E12 -E8 E7 E10"/>
    </vehicle>
    <vehicle id="veh822" depart="715.74">
        <route edges="-E6 E8 E12 E13"/>
    </vehicle>
    <vehicle id="veh293" depart="716.19">
        <route edges="-E9 E10"/>
    </vehicle>
    <vehicle id="veh646" depart="719.47">
        <route edges="-E14 E12 E13"/>
    </vehicle>
    <vehicle id="veh39" depart="722.21">
        <route edges="-E14 E12 E13"/>
    </vehicle>
    <vehicle id="veh1149" depart="726.78">
        <route edges="-E2 E3 -E8 E6"/>
    </vehicle>
    <vehicle id="veh1535" depart="727.27">
        <route edges="-E9 -E7 -E0 E4"/>
    </vehicle>
    <vehicle id="veh470" depart="728.03">
        <route edges="-E13 -E11 E10"/>
    </vehicle>
    <vehicle id="veh1600" depart="728.59">
        <route edges="-E4 E0 E7 E10"/>
    </vehicle>
    <vehicle id="veh1049" depart="730.03">
        <route edges="-E4 E0 E7 E10"/>
    </vehicle>
    <vehicle id="veh250" depart="730.28">
        <route edges="-E13 -E11 E10"/>
    </vehicle>
    <vehicle id="veh440" depart="730.33">
        <route edges="-E4 E0 E7 E10"/>
    </vehicle>
    <vehicle id="veh416" depart="732.95">
        <route edges="-E10 -E7 E6"/>
    </vehicle>
    <vehicle id="veh1504" depart="733.19">
        <route edges="-E6 E8 E12 E13"/>
    </vehicle>
    <vehicle id="veh1226" depart="735.03">
        <route edges="-E13 -E12 -E8 E6"/>
    </vehicle>
    <vehicle id="veh1910" depart="736.12">
        <route edges="-E4 E0 E7 E11 E13"/>
    </vehicle>
    <vehicle id="veh1649" depart="736.18">
        <route edges="-E13 -E12 -E8 E6"/>
    </vehicle>
    <vehicle id="veh1923" depart="736.39">
        <route edges="-E4 E0 E8 E14"/>
    </vehicle>
    <vehicle id="veh1076" depart="736.71">
        <route edges="-E13 -E12 -E8 E6"/>
    </vehicle>
    <vehicle id="veh1188" depart="738.40">
        <route edges="-E4 E1 E2"/>
    </vehicle>
    <vehicle id="veh675" depart="744.73">
        <route edges="-E10 -E7 E6"/>
    </vehicle>
    <vehicle id="veh1583" depart="746.08">
        <route edges="-E10 E11 E13"/>
    </vehicle>
    <vehicle id="veh1002" depart="750.05">
        <route edges="-E13 -E12 -E8 E6"/>
    </vehicle>
    <vehicle id="veh264" depart="752.26">
        <route edges="-E2 E3 E12 E13"/>
    </vehicle>
    <vehicle id="veh496" depart="753.79">
        <route edges="-E9 E11 -E12 -E8 E7 E9"/>
    </vehicle>
    <vehicle id="veh712" depart="754.19">
        <route edges="-E13 -E12 -E3 E2"/>
    </vehicle>
    <vehicle id="veh1240" depart="754.52">
        <route edges="-E6 E5 -E1 E0 E6"/>
    </vehicle>
    <vehicle id="veh659" depart="755.39">
        <route edges="-E2 -E1 E0 E7 E10"/>
    </vehicle>
    <vehicle id="veh1995" depart="755.42">
        <route edges="-E4 E0 E7 E10"/>
    </vehicle>
    <vehicle id="veh1148" depart="755.64">
        <route edges="-E6 E7 E10"/>
    </vehicle>
    <vehicle id="veh1468" depart="760.10">
        <route edges="-E10 -E7 E6"/>
    </vehicle>
    <vehicle id="veh1632" depart="762.05">
        <route edges="-E10 E11 E13"/>
    </vehicle>
    <vehicle id="veh1780" depart="767.09">
        <route edges="-E6 E7 E10"/>
    </vehicle>
    <vehicle id="veh1216" depart="768.03">
        <route edges="-E13 -E12 -E3 E2"/>
    </vehicle>
    <vehicle id="veh670" depart="772.81">
        <route edges="-E6 E5 -E1 E0 E6"/>
    </vehicle>
    <vehicle id="veh406" depart="777.50">
        <route edges="-E10 -E7 E6"/>
    </vehicle>
    <vehicle id="veh691" depart="777.55">
        <route edges="-E14 -E8 E6"/>
    </vehicle>
    <vehicle id="veh1367" depart="777.80">
        <route edges="-E10 E11 E13"/>
    </vehicle>
    <vehicle id="veh1337" depart="779.47">
        <route edges="-E13 -E11 E10"/>
    </vehicle>
    <vehicle id="veh21" depart="781.58">
        <route edges="-E2 -E1 E0 E7 E10"/>
    </vehicle>
    <vehicle id="veh34" depart="781.93">
        <route edges="-E4 E0 E7 E11 E13"/>
    </vehicle>
    <vehicle id="veh1902" depart="785.88">
        <route edges="-E6 E8 E12 E13"/>
    </vehicle>
    <vehicle id="veh1863" depart="787.82">
        <route edges="-E6 E7 E10"/>
    </vehicle>
    <vehicle id="veh1865" depart="788.08">
        <route edges="-E9 -E7 E6"/>
    </vehicle>
    <vehicle id="veh1186" depart="788.67">
        <route edges="-E2 E3 -E8 E6"/>
    </vehicle>
    <vehicle id="veh1214" depart="789.35">
        <route edges="-E9 E10"/>
    </vehicle>
    <vehicle id="veh88" depart="789.81">
        <route edges="-E6 E5 E2"/>
    </vehicle>
    <vehicle id="veh1459" depart="790.15">
        <route edges="-E14 -E8 E7 E10"/>
    </vehicle>
    <vehicle id="veh534" depart="790.71">
        <route edges="-E14 -E8 E6"/>
    </vehicle>
    <vehicle id="veh189" depart="791.93">
        <route edges="-E6 E7 E10"/>
    </vehicle>
    <vehicle id="veh411" depart="792.80">
        <route edges="-E4 E0 E6"/>
    </vehicle>
    <vehicle id="veh854" depart="796.69">
        <route edges="-E6 E7 E10"/>
    </vehicle>
    <vehicle id="veh877" depart="798.71">
        <route edges="-E4 E0 E6"/>
    </vehicle>
    <vehicle id="veh1523" depart="800.59">
        <route edges="-E9 E11 -E12 E14"/>
    </vehicle>
    <vehicle id="veh12" depart="801.79">
        <route edges="-E13 -E11 E10"/>
    </vehicle>
    <vehicle id="veh1691" depart="802.36">
        <route edges="-E10 -E7 E5 E2"/>
    </vehicle>
    <vehicle id="veh1591" depart="803.02">
        <route edges="-E9 E10"/>
    </vehicle>
    <vehicle id="veh1695" depart="803.57">
        <route edges="-E4 E0 E7 E11 E13"/>
    </vehicle>
    <vehicle id="veh1018" depart="804.59">
        <route edges="-E6 E7 E10"/>
    </vehicle>
    <vehicle id="veh459" depart="808.44">
        <route edges="-E14 E12 E13"/>
    </vehicle>
    <vehicle id="veh1607" depart="811.49">
        <route edges="-E9 E10"/>
    </vehicle>
    <vehicle id="veh1579" depart="813.90">
        <route edges="-E10 E11 E13"/>
    </vehicle>
    <vehicle id="veh1769" depart="816.35">
        <route edges="-E4 E0 E7 E11 E13"/>
    </vehicle>
    <vehicle id="veh706" depart="816.77">
        <route edges="-E14 E12 E13"/>
    </vehicle>
    <vehicle id="veh936" depart="818.07">
        <route edges="-E14 -E8 E7 E10"/>
    </vehicle>
    <vehicle id="veh1458" depart="820.79">
        <route edges="-E13 -E12 -E8 E6"/>
    </vehicle>
    <vehicle id="veh1082" depart="822.04">
        <route edges="-E9 E11 E13"/>
    </vehicle>
    <vehicle id="veh1521" depart="822.10">
        <route edges="-E4 E0 E5 -E1 E4"/>
    </vehicle>
    <vehicle id="veh1728" depart="824.07">
        <route edges="-E14 E12 E13"/>
    </vehicle>
    <vehicle id="veh846" depart="825.51">
        <route edges="-E2 E3 -E8 E6"/>
    </vehicle>
    <vehicle id="veh982" depart="828.90">
        <route edges="-E2 E3 -E8 E6"/>
    </vehicle>
    <vehicle id="veh608" depart="830.10">
        <route edges="-E10 E11 E13"/>
    </vehicle>
    <vehicle id="veh241" depart="830.33">
        <route edges="-E2 -E1 E0 E7 E10"/>
    </vehicle>
    <vehicle id="veh1146" depart="832.77">
        <route edges="-E13 -E12 -E8 E7 E11 E13"/>
    </vehicle>
    <vehicle id="veh173" depart="833.34">
        <route edges="-E9 -E7 E5 E2"/>
    </vehicle>
    <vehicle id="veh562" depart="835.21">
        <route edges="-E9 E11 E13"/>
    </vehicle>
    <vehicle id="veh1539" depart="837.53">
        <route edges="-E13 -E12 -E8 E6"/>
    </vehicle>
    <vehicle id="veh1760" depart="838.32">
        <route edges="-E14 E12 E13"/>
    </vehicle>
    <vehicle id="veh769" depart="840.31">
        <route edges="-E6 E8 E12 E13"/>
    </vehicle>
    <vehicle id="veh446" depart="841.71">
        <route edges="-E14 E12 E13"/>
    </vehicle>
    <vehicle id="veh1243" depart="843.33">
        <route edges="-E4 E0 E6"/>
    </vehicle>
    <vehicle id="veh1611" depart="844.24">
        <route edges="-E10 E11 E13"/>
    </vehicle>
    <vehicle id="veh441" depart="847.96">
        <route edges="-E9 E11 -E12 -E8 E7 E9"/>
    </vehicle>
    <vehicle id="veh1970" depart="849.20">
        <route edges="-E2 E3 -E8 E6"/>
    </vehicle>
    <vehicle id="veh481" depart="849.26">
        <route edges="-E10 E11 E13"/>
    </vehicle>
    <vehicle id="veh835" depart="849.34">
        <route edges="-E10 E11 E13"/>
    </vehicle>
    <vehicle id="veh1847" depart="849.35">
        <route edges="-E2 -E1 E4"/>
    </vehicle>
    <vehicle id="veh179" depart="852.48">
        <route edges="-E9 -E7 E6"/>
    </vehicle>
    <vehicle id="veh600" depart="852.97">
        <route edges="-E2 E3 -E8 E6"/>
    </vehicle>
    <vehicle id="veh1268" depart="854.21">
        <route edges="-E2 E3 -E8 E6"/>
    </vehicle>
    <vehicle id="veh1898" depart="858.48">
        <route edges="-E4 E0 E6"/>
    </vehicle>
    <vehicle id="veh1250" depart="859.37">
        <route edges="-E14 -E8 E6"/>
    </vehicle>
    <vehicle id="veh1681" depart="860.65">
        <route edges="-E14 -E8 E6"/>
    </vehicle>
    <vehicle id="veh1369" depart="863.02">
        <route edges="-E6 E8 E12 E13"/>
    </vehicle>
    <vehicle id="veh204" depart="867.80">
        <route edges="-E2 -E1 E0 E7 E10"/>
    </vehicle>
    <vehicle id="veh1909" depart="870.53">
        <route edges="-E10 E11 E13"/>
    </vehicle>
    <vehicle id="veh1841" depart="872.23">
        <route edges="-E6 E7 E10"/>
    </vehicle>
    <vehicle id="veh1969" depart="872.56">
        <route edges="-E2 E3 -E8 E6"/>
    </vehicle>
    <vehicle id="veh1498" depart="873.12">
        <route edges="-E6 E7 E10"/>
    </vehicle>
    <vehicle id="veh718" depart="874.24">
        <route edges="-E14 -E8 E6"/>
    </vehicle>
    <vehicle id="veh1574" depart="879.16">
        <route edges="-E14 -E8 E6"/>
    </vehicle>