<?xml version="1.0" encoding="UTF-8"?>

<!-- generated on 2026-06-12T13:27:54.613795+01:00 by Eclipse SUMO duarouter 1.26.0
<duarouterConfiguration xmlns:xsi="http://www.w3.org/2001/XMLSchema-instance" xsi:noNamespaceSchemaLocation="http://sumo.dlr.de/xsd/duarouterConfiguration.xsd">

    <input>
        <net-file value="C:\Users\rondo\Desktop\Sys auto projeekt\src\City_map_2\city2.net.xml"/>
        <route-files value="C:\Users\rondo\Desktop\Sys auto projeekt\src\City_map_2\city2_hard.trips.xml"/>
    </input>

    <output>
        <output-file value="C:\Users\rondo\Desktop\Sys auto projeekt\src\City_map_2\city2_hard.rou.xml"/>
    </output>

    <report>
        <no-warnings value="true"/>
        <ignore-errors value="true"/>
    </report>

    <random_number>
        <seed value="42"/>
    </random_number>

</duarouterConfiguration>
-->

<routes xmlns:xsi="http://www.w3.org/2001/XMLSchema-instance" xsi:noNamespaceSchemaLocation="http://sumo.dlr.de/xsd/routes_file.xsd">
    <vehicle id="veh1094" depart="11.05">
        <route edges="-E6 E8 E12 E13"/>
    </vehicle>
    <vehicle id="veh1331" depart="35.89">
        <route edges="-E10 E11 -E12 -E8 E7 E10"/>
    </vehicle>
    <vehicle id="veh1905" depart="41.66">
        <route edges="-E2 E3 -E8 E6"/>
    </vehicle>
    <vehicle id="veh1757" depart="50.48">
        <route edges="-E2 E3 -E8 E6"/>
    </vehicle>
    <vehicle id="veh1286" depart="78.87">
        <route edges="-E4 E0 E5 -E1 E4"/>
    </vehicle>
    <vehicle id="veh1991" depart="96.17">
        <route edges="-E13 -E12 -E8 E6"/>
    </vehicle>
    <vehicle id="veh1808" depart="123.78">
        <route edges="-E9 E10"/>
    </vehicle>
    <vehicle id="veh1271" depart="131.49">
        <route edges="-E2 E3 E12 E13"/>
    </vehicle>
    <vehicle id="veh651" depart="133.98">
        <route edges="-E4 E1 E2"/>
    </vehicle>
    <vehicle id="veh62" depart="143.99">
        <route edges="-E9 E11 E13"/>
    </vehicle>
    <vehicle id="veh718" depart="151.33">
        <route edges="-E2 E3 E12 E13"/>
    </vehicle>
    <vehicle id="veh1837" depart="156.04">
        <route edges="-E14 E12 E13"/>
    </vehicle>
    <vehicle id="veh1913" depart="156.93">
        <route edges="-E14 E12 E13"/>
    </vehicle>
    <vehicle id="veh1653" depart="158.02">
        <route edges="-E2 E3 -E8 E6"/>
    </vehicle>
    <vehicle id="veh1469" depart="160.17">
        <route edges="-E9 E10"/>
    </vehicle>
    <vehicle id="veh18" depart="183.59">
        <route edges="-E6 E7 E10"/>
    </vehicle>
    <vehicle id="veh114" depart="186.27">
        <route edges="-E6 E7 E10"/>
    </vehicle>
    <vehicle id="veh1497" depart="190.65">
        <route edges="-E2 E3 E14"/>
    </vehicle>
    <vehicle id="veh1470" depart="192.73">
        <route edges="-E6 E5 -E1 E0 E6"/>
    </vehicle>
    <vehicle id="veh1634" depart="194.58">
        <route edges="-E10 E11 E13"/>
    </vehicle>
    <vehicle id="veh957" depart="200.38">
        <route edges="-E4 E1 E2"/>
    </vehicle>
    <vehicle id="veh283" depart="200.88">
        <route edges="-E10 -E7 E6"/>
    </vehicle>
    <vehicle id="veh919" depart="206.38">
        <route edges="-E9 E11 E13"/>
    </vehicle>
    <vehicle id="veh1325" depart="208.14">
        <route edges="-E14 -E8 E7 E10"/>
    </vehicle>
    <vehicle id="veh517" depart="211.75">
        <route edges="-E6 E5 -E1 E0 E6"/>
    </vehicle>
    <vehicle id="veh1439" depart="218.62">
        <route edges="-E14 E12 E13"/>
    </vehicle>
    <vehicle id="veh749" depart="223.24">
        <route edges="-E4 E0 E6"/>
    </vehicle>
    <vehicle id="veh1917" depart="234.83">
        <route edges="-E13 -E12 -E8 E6"/>
    </vehicle>
    <vehicle id="veh786" depart="239.08">
        <route edges="-E9 E11 E13"/>
    </vehicle>
    <vehicle id="veh905" depart="242.29">
        <route edges="-E10 E11 -E12 -E8 E7 E10"/>
    </vehicle>
    <vehicle id="veh632" depart="249.50">
        <route edges="-E4 E0 E7 E10"/>
    </vehicle>
    <vehicle id="veh679" depart="255.09">
        <route edges="-E14 -E8 E6"/>
    </vehicle>
    <vehicle id="veh556" depart="277.53">
        <route edges="-E10 E11 E13"/>
    </vehicle>
    <vehicle id="veh836" depart="280.01">
        <route edges="-E6 E7 E9"/>
    </vehicle>
    <vehicle id="veh1434" depart="291.03">
        <route edges="-E4 E0 E7 E11 E13"/>
    </vehicle>
    <vehicle id="veh1224" depart="291.37">
        <route edges="-E10 -E7 E6"/>
    </vehicle>
    <vehicle id="veh454" depart="291.58">
        <route edges="-E14 -E8 -E0 E4"/>
    </vehicle>
    <vehicle id="veh1520" depart="293.28">
        <route edges="-E2 -E1 E0 E5 E2"/>
    </vehicle>
    <vehicle id="veh494" depart="297.57">
        <route edges="-E4 E0 E6"/>
    </vehicle>
    <vehicle id="veh1730" depart="301.15">
        <route edges="-E9 E11 E13"/>
    </vehicle>
    <vehicle id="veh970" depart="324.02">
        <route edges="-E14 -E8 E5 E3 E14"/>
    </vehicle>
    <vehicle id="veh149" depart="324.41">
        <route edges="-E9 E11 E13"/>
    </vehicle>
    <vehicle id="veh1464" depart="326.94">
        <route edges="-E10 -E7 E6"/>
    </vehicle>
    <vehicle id="veh405" depart="329.93">
        <route edges="-E6 E5 -E1 E0 E6"/>
    </vehicle>
    <vehicle id="veh120" depart="337.25">
        <route edges="-E4 E0 E7 E10"/>
    </vehicle>
    <vehicle id="veh1613" depart="350.30">
        <route edges="-E10 E11 -E12 -E8 E7 E10"/>
    </vehicle>
    <vehicle id="veh1967" depart="355.35">
        <route edges="-E4 E0 E7 E11 E13"/>
    </vehicle>
    <vehicle id="veh1535" depart="359.62">
        <route edges="-E4 E0 E7 E10"/>
    </vehicle>
    <vehicle id="veh1492" depart="363.33">
        <route edges="-E14 E12 E13"/>
    </vehicle>
    <vehicle id="veh1844" depart="364.23">
        <route edges="-E13 -E12 -E8 E7 E11 E13"/>
    </vehicle>
    <vehicle id="veh1788" depart="365.33">
        <route edges="-E6 E7 E10"/>
    </vehicle>
    <vehicle id="veh1064" depart="373.41">
        <route edges="-E9 E11 E13"/>
    </vehicle>
    <vehicle id="veh1854" depart="379.15">
        <route edges="-E9 -E7 E6"/>
    </vehicle>
    <vehicle id="veh1511" depart="382.92">
        <route edges="-E9 E10"/>
    </vehicle>
    <vehicle id="veh1188" depart="383.28">
        <route edges="-E9 -E7 -E0 E4"/>
    </vehicle>
    <vehicle id="veh1056" depart="385.09">
        <route edges="-E13 -E11 E10"/>
    </vehicle>
    <vehicle id="veh275" depart="386.85">
        <route edges="-E2 E3 -E8 E6"/>
    </vehicle>
    <vehicle id="veh491" depart="390.89">
        <route edges="-E10 E11 -E12 -E8 E7 E10"/>
    </vehicle>
    <vehicle id="veh1071" depart="397.46">
        <route edges="-E6 E7 E9"/>
    </vehicle>
    <vehicle id="veh1641" depart="414.09">
        <route edges="-E13 -E12 -E8 E6"/>
    </vehicle>
    <vehicle id="veh853" depart="415.17">
        <route edges="-E6 E7 E10"/>
    </vehicle>
    <vehicle id="veh1333" depart="419.29">
        <route edges="-E2 E3 E12 E13"/>
    </vehicle>
    <vehicle id="veh1921" depart="422.72">
        <route edges="-E2 E3 E12 E13"/>
    </vehicle>
    <vehicle id="veh1736" depart="425.08">
        <route edges="-E9 E10"/>
    </vehicle>
    <vehicle id="veh902" depart="427.37">
        <route edges="-E4 E0 E7 E9"/>
    </vehicle>
    <vehicle id="veh1697" depart="429.01">
        <route edges="-E4 E0 E7 E11 E13"/>
    </vehicle>
    <vehicle id="veh1358" depart="432.25">
        <route edges="-E4 E0 E6"/>
    </vehicle>
    <vehicle id="veh309" depart="439.23">
        <route edges="-E2 -E1 E0 E7 E10"/>
    </vehicle>
    <vehicle id="veh1215" depart="444.30">
        <route edges="-E13 -E12 -E8 E6"/>
    </vehicle>
    <vehicle id="veh482" depart="444.83">
        <route edges="-E14 E12 E13"/>
    </vehicle>
    <vehicle id="veh255" depart="447.14">
        <route edges="-E2 E3 E12 -E11 E9"/>
    </vehicle>
    <vehicle id="veh301" depart="449.74">
        <route edges="-E6 E5 -E1 E0 E6"/>
    </vehicle>
    <vehicle id="veh218" depart="450.21">
        <route edges="-E9 -E7 E6"/>
    </vehicle>
    <vehicle id="veh1134" depart="450.36">
        <route edges="-E14 -E8 E6"/>
    </vehicle>
    <vehicle id="veh1149" depart="454.81">
        <route edges="-E14 -E8 E6"/>
    </vehicle>
    <vehicle id="veh1443" depart="455.19">
        <route edges="-E14 -E8 E7 E10"/>
    </vehicle>
    <vehicle id="veh108" depart="455.60">
        <route edges="-E14 -E8 E7 E10"/>
    </vehicle>
    <vehicle id="veh816" depart="457.78">
        <route edges="-E13 -E12 -E8 E6"/>
    </vehicle>
    <vehicle id="veh900" depart="461.67">
        <route edges="-E13 -E11 E10"/>
    </vehicle>
    <vehicle id="veh1707" depart="461.79">
        <route edges="-E6 E5 -E1 E0 E6"/>
    </vehicle>
    <vehicle id="veh343" depart="466.33">
        <route edges="-E4 E0 E6"/>
    </vehicle>
    <vehicle id="veh1670" depart="470.88">
        <route edges="-E4 E0 E7 E11 E13"/>
    </vehicle>
    <vehicle id="veh1376" depart="472.81">
        <route edges="-E10 -E7 E6"/>
    </vehicle>
    <vehicle id="veh1292" depart="473.53">
        <route edges="-E2 -E1 E4"/>
    </vehicle>
    <vehicle id="veh1929" depart="475.06">
        <route edges="-E9 E10"/>
    </vehicle>
    <vehicle id="veh526" depart="480.14">
        <route edges="-E4 E0 E7 E10"/>
    </vehicle>
    <vehicle id="veh1032" depart="481.71">
        <route edges="-E13 -E12 -E8 E7 E11 E13"/>
    </vehicle>
    <vehicle id="veh1676" depart="482.53">
        <route edges="-E6 E5 -E1 E0 E6"/>
    </vehicle>
    <vehicle id="veh366" depart="486.19">
        <route edges="-E14 -E8 E6"/>
    </vehicle>
    <vehicle id="veh384" depart="486.91">
        <route edges="-E2 E3 E12 E13"/>
    </vehicle>
    <vehicle id="veh228" depart="487.22">
        <route edges="-E14 E12 E13"/>
    </vehicle>
    <vehicle id="veh982" depart="488.72">
        <route edges="-E9 -E7 E6"/>
    </vehicle>
    <vehicle id="veh1992" depart="496.69">
        <route edges="-E13 -E12 -E3 E2"/>
    </vehicle>
    <vehicle id="veh158" depart="496.70">
        <route edges="-E14 E12 -E11 E9"/>
    </vehicle>
    <vehicle id="veh1210" depart="506.33">
        <route edges="-E9 -E7 E6"/>
    </vehicle>
    <vehicle id="veh1577" depart="508.45">
        <route edges="-E4 E0 E6"/>
    </vehicle>
    <vehicle id="veh408" depart="511.51">
        <route edges="-E6 -E0 E4"/>
    </vehicle>
    <vehicle id="veh1451" depart="519.05">
        <route edges="-E13 -E12 -E8 E6"/>
    </vehicle>
    <vehicle id="veh302" depart="519.35">
        <route edges="-E14 E12 E13"/>
    </vehicle>
    <vehicle id="veh1392" depart="520.66">
        <route edges="-E9 -E7 E6"/>
    </vehicle>
    <vehicle id="veh1079" depart="522.06">
        <route edges="-E14 E12 E13"/>
    </vehicle>
    <vehicle id="veh64" depart="527.12">
        <route edges="-E13 -E11 E10"/>
    </vehicle>
    <vehicle id="veh1835" depart="535.66">
        <route edges="-E9 -E7 -E0 E4"/>
    </vehicle>
    <vehicle id="veh692" depart="544.95">
        <route edges="-E10 E11 -E12 -E8 E7 E10"/>
    </vehicle>
    <vehicle id="veh877" depart="548.29">
        <route edges="-E10 E9"/>
    </vehicle>
    <vehicle id="veh263" depart="548.97">
        <route edges="-E2 E3 -E8 E6"/>
    </vehicle>
    <vehicle id="veh349" depart="549.49">
        <route edges="-E13 -E11 E9"/>
    </vehicle>
    <vehicle id="veh551" depart="550.53">
        <route edges="-E6 E8 E14"/>
    </vehicle>
    <vehicle id="veh1287" depart="551.34">
        <route edges="-E14 -E8 E7 E10"/>
    </vehicle>
    <vehicle id="veh653" depart="554.62">
        <route edges="-E6 E7 E10"/>
    </vehicle>
    <vehicle id="veh758" depart="557.02">
        <route edges="-E6 E8 E12 E13"/>
    </vehicle>
    <vehicle id="veh310" depart="557.05">
        <route edges="-E14 -E8 E7 E10"/>
    </vehicle>
    <vehicle id="veh288" depart="564.19">
        <route edges="-E6 E7 E10"/>
    </vehicle>
    <vehicle id="veh435" depart="577.96">
        <route edges="-E10 -E7 E6"/>
    </vehicle>
    <vehicle id="veh153" depart="580.72">
        <route edges="-E9 -E7 E6"/>
    </vehicle>
    <vehicle id="veh938" depart="585.21">
        <route edges="-E4 E0 E7 E10"/>
    </vehicle>
    <vehicle id="veh1387" depart="586.82">
        <route edges="-E9 -E7 E6"/>
    </vehicle>
    <vehicle id="veh1553" depart="588.24">
        <route edges="-E6 E5 -E1 E0 E6"/>
    </vehicle>
    <vehicle id="veh287" depart="601.63">
        <route edges="-E6 E5 -E1 E0 E6"/>
    </vehicle>
    <vehicle id="veh379" depart="602.81">
        <route edges="-E13 -E12 E14"/>
    </vehicle>
    <vehicle id="veh1688" depart="604.16">
        <route edges="-E6 E5 -E1 E0 E6"/>
    </vehicle>
    <vehicle id="veh779" depart="605.17">
        <route edges="-E6 E5 -E1 E0 E6"/>
    </vehicle>
    <vehicle id="veh564" depart="606.37">
        <route edges="-E10 E11 E13"/>
    </vehicle>
    <vehicle id="veh1001" depart="617.40">
        <route edges="-E14 -E8 E6"/>
    </vehicle>
    <vehicle id="veh135" depart="617.50">
        <route edges="-E2 -E1 E0 E7 E10"/>
    </vehicle>
    <vehicle id="veh1845" depart="618.12">
        <route edges="-E6 E5 -E1 E0 E6"/>
    </vehicle>
    <vehicle id="veh1423" depart="622.01">
        <route edges="-E9 E10"/>
    </vehicle>
    <vehicle id="veh1545" depart="626.74">
        <route edges="-E4 E0 E7 E11 E13"/>
    </vehicle>
    <vehicle id="veh827" depart="628.09">
        <route edges="-E13 -E11 E10"/>
    </vehicle>
    <vehicle id="veh954" depart="635.27">
        <route edges="-E6 E8 E12 E13"/>
    </vehicle>
    <vehicle id="veh1957" depart="635.86">
        <route edges="-E9 E11 E13"/>
    </vehicle>
    <vehicle id="veh489" depart="636.79">
        <route edges="-E4 E0 E7 E10"/>
    </vehicle>
    <vehicle id="veh1237" depart="639.65">
        <route edges="-E2 -E1 E0 E7 E10"/>
    </vehicle>
    <vehicle id="veh942" depart="645.84">
        <route edges="-E6 E8 E12 E13"/>
    </vehicle>
    <vehicle id="veh1503" depart="647.78">
        <route edges="-E13 -E12 -E8 E7 E11 E13"/>
    </vehicle>
    <vehicle id="veh129" depart="650.80">
        <route edges="-E2 E3 E12 E13"/>
    </vehicle>
    <vehicle id="veh915" depart="651.91">
        <route edges="-E4 E0 E7 E10"/>
    </vehicle>
    <vehicle id="veh540" depart="652.63">
        <route edges="-E9 -E7 -E0 E4"/>
    </vehicle>
    <vehicle id="veh371" depart="655.15">
        <route edges="-E9 E10"/>
    </vehicle>
    <vehicle id="veh1569" depart="662.82">
        <route edges="-E9 -E7 E6"/>
    </vehicle>
    <vehicle id="veh601" depart="663.68">
        <route edges="-E2 E3 -E8 E6"/>
    </vehicle>
    <vehicle id="veh1729" depart="666.51">
        <route edges="-E2 E3 E12 -E11 E9"/>
    </vehicle>
    <vehicle id="veh1422" depart="668.85">
        <route edges="-E2 E3 E12 E13"/>
    </vehicle>
    <vehicle id="veh923" depart="669.65">
        <route edges="-E4 E0 E7 E11 E13"/>
    </vehicle>
    <vehicle id="veh1053" depart="670.15">
        <route edges="-E2 -E1 E0 E7 E10"/>
    </vehicle>
    <vehicle id="veh439" depart="673.34">
        <route edges="-E9 -E7 -E0 E4"/>
    </vehicle>
    <vehicle id="veh1955" depart="675.29">
        <route edges="-E13 -E11 E10"/>
    </vehicle>
    <vehicle id="veh1706" depart="677.18">
        <route edges="-E9 E11 E13"/>
    </vehicle>
    <vehicle id="veh1138" depart="677.21">
        <route edges="-E6 E8 E12 E13"/>
    </vehicle>
    <vehicle id="veh216" depart="683.21">
        <route edges="-E6 E8 E12 E13"/>
    </vehicle>
    <vehicle id="veh1914" depart="686.19">
        <route edges="-E2 -E1 E0 E7 E10"/>
    </vehicle>
    <vehicle id="veh397" depart="686.23">
        <route edges="-E6 E7 E10"/>
    </vehicle>
    <vehicle id="veh1402" depart="687.26">
        <route edges="-E13 -E12 -E8 E6"/>
    </vehicle>
    <vehicle id="veh1076" depart="688.90">
        <route edges="-E9 E11 E13"/>
    </vehicle>
    <vehicle id="veh82" depart="690.93">
        <route edges="-E4 E0 E7 E9"/>
    </vehicle>
    <vehicle id="veh1098" depart="692.67">
        <route edges="-E6 E8 E12 E13"/>
    </vehicle>
    <vehicle id="veh452" depart="692.85">
        <route edges="-E10 E11 -E12 -E8 E7 E10"/>
    </vehicle>
    <vehicle id="veh1385" depart="697.48">
        <route edges="-E9 -E7 E6"/>
    </vehicle>
    <vehicle id="veh1173" depart="699.44">
        <route edges="-E4 E0 E7 E11 E13"/>
    </vehicle>
    <vehicle id="veh56" depart="699.88">
        <route edges="-E2 -E1 E0 E7 E10"/>
    </vehicle>
    <vehicle id="veh1268" depart="700.33">
        <route edges="-E9 -E7 E6"/>
    </vehicle>
    <vehicle id="veh406" depart="704.38">
        <route edges="-E14 E12 E13"/>
    </vehicle>
    <vehicle id="veh1336" depart="706.93">
        <route edges="-E2 -E1 E0 E7 E10"/>
    </vehicle>
    <vehicle id="veh1744" depart="708.58">
        <route edges="-E10 E11 E13"/>
    </vehicle>
    <vehicle id="veh374" depart="710.38">
        <route edges="-E9 E10"/>
    </vehicle>
    <vehicle id="veh1615" depart="712.22">
        <route edges="-E4 E0 E6"/>
    </vehicle>
    <vehicle id="veh1351" depart="713.15">
        <route edges="-E6 E8 E12 E13"/>
    </vehicle>
    <vehicle id="veh217" depart="713.19">
        <route edges="-E2 E3 -E8 E6"/>
    </vehicle>
    <vehicle id="veh709" depart="715.40">
        <route edges="-E14 E12 E13"/>
    </vehicle>
    <vehicle id="veh1147" depart="718.98">
        <route edges="-E4 E0 E8 E14"/>
    </vehicle>
    <vehicle id="veh1442" depart="719.43">
        <route edges="-E10 E9"/>
    </vehicle>
    <vehicle id="veh337" depart="719.50">
        <route edges="-E13 -E11 E10"/>
    </vehicle>
    <vehicle id="veh1881" depart="720.00">
        <route edges="-E6 E7 E10"/>
    </vehicle>
    <vehicle id="veh220" depart="721.34">
        <route edges="-E14 -E8 E7 E10"/>
    </vehicle>
    <vehicle id="veh1617" depart="722.18">
        <route edges="-E10 -E7 -E0 E4"/>
    </vehicle>
    <vehicle id="veh1747" depart="724.25">
        <route edges="-E14 -E8 E7 E10"/>
    </vehicle>
    <vehicle id="veh1395" depart="725.52">
        <route edges="-E4 E0 E7 E11 E13"/>
    </vehicle>
    <vehicle id="veh1975" depart="726.36">
        <route edges="-E14 -E8 E6"/>
    </vehicle>
    <vehicle id="veh1082" depart="729.24">
        <route edges="-E2 E3 -E8 E6"/>
    </vehicle>
    <vehicle id="veh1301" depart="729.95">
        <route edges="-E6 E5 E2"/>
    </vehicle>
    <vehicle id="veh388" depart="731.00">
        <route edges="-E14 -E8 E7 E10"/>
    </vehicle>
    <vehicle id="veh1060" depart="732.67">
        <route edges="-E13 -E11 E9"/>
    </vehicle>
    <vehicle id="veh358" depart="734.08">
        <route edges="-E10 E11 E13"/>
    </vehicle>
    <vehicle id="veh270" depart="739.66">
        <route edges="-E14 -E8 E6"/>
    </vehicle>
    <vehicle id="veh1526" depart="739.67">
        <route edges="-E13 -E12 -E8 E6"/>
    </vehicle>
    <vehicle id="veh805" depart="740.54">
        <route edges="-E6 E8 E12 E13"/>
    </vehicle>
    <vehicle id="veh168" depart="742.78">
        <route edges="-E6 E5 E2"/>
    </vehicle>
    <vehicle id="veh743" depart="745.23">
        <route edges="-E9 E11 E13"/>
    </vehicle>
    <vehicle id="veh412" depart="753.38">
        <route edges="-E13 -E12 -E8 E6"/>
    </vehicle>
    <vehicle id="veh1590" depart="756.29">
        <route edges="-E10 -E7 E6"/>
    </vehicle>
    <vehicle id="veh132" depart="756.43">
        <route edges="-E10 E11 E13"/>
    </vehicle>
    <vehicle id="veh451" depart="758.43">
        <route edges="-E2 -E1 E0 E5 E2"/>
    </vehicle>
    <vehicle id="veh154" depart="758.51">
        <route edges="-E4 E0 E7 E10"/>
    </vehicle>
    <vehicle id="veh1654" depart="759.29">
        <route edges="-E10 E11 E13"/>
    </vehicle>
    <vehicle id="veh484" depart="760.81">
        <route edges="-E6 E8 E12 E13"/>
    </vehicle>
    <vehicle id="veh1390" depart="764.50">
        <route edges="-E9 E10"/>
    </vehicle>
    <vehicle id="veh1123" depart="766.61">
        <route edges="-E6 E7 E10"/>
    </vehicle>
    <vehicle id="veh663" depart="768.04">
        <route edges="-E14 E12 E13"/>
    </vehicle>
    <vehicle id="veh1843" depart="768.35">
        <route edges="-E10 -E7 E5 E2"/>
    </vehicle>
    <vehicle id="veh1177" depart="768.96">
        <route edges="-E2 -E1 E0 E7 E10"/>
    </vehicle>
    <vehicle id="veh1455" depart="769.88">
        <route edges="-E6 E8 E12 E13"/>
    </vehicle>
    <vehicle id="veh1229" depart="770.98">
        <route edges="-E6 E5 -E1 E0 E6"/>
    </vehicle>
    <vehicle id="veh1338" depart="772.15">
        <route edges="-E2 E3 -E8 E6"/>
    </vehicle>
    <vehicle id="veh136" depart="773.35">
        <route edges="-E4 E0 E7 E10"/>
    </vehicle>
    <vehicle id="veh1132" depart="774.35">
        <route edges="-E9 E11 E13"/>
    </vehicle>
    <vehicle id="veh1181" depart="779.18">
        <route edges="-E14 -E8 E7 E10"/>
    </vehicle>
    <vehicle id="veh225" depart="780.81">
        <route edges="-E9 -E7 -E0 E4"/>
    </vehicle>
    <vehicle id="veh237" depart="781.40">
        <route edges="-E13 -E12 -E8 E6"/>
    </vehicle>
    <vehicle id="veh629" depart="782.53">
        <route edges="-E2 -E1 E0 E7 E10"/>
    </vehicle>
    <vehicle id="veh236" depart="785.08">
        <route edges="-E14 -E8 E7 E10"/>
    </vehicle>
    <vehicle id="veh1696" depart="785.79">
        <route edges="-E9 E10"/>
    </vehicle>
    <vehicle id="veh1009" depart="786.58">
        <route edges="-E9 E11 -E12 -E8 E7 E9"/>
    </vehicle>
    <vehicle id="veh502" depart="787.53">
        <route edges="-E4 E0 E7 E11 E13"/>
    </vehicle>
    <vehicle id="veh385" depart="791.31">
        <route edges="-E6 E8 E12 E13"/>
    </vehicle>
    <vehicle id="veh473" depart="793.62">
        <route edges="-E6 E7 E10"/>
    </vehicle>
    <vehicle id="veh308" depart="793.95">
        <route edges="-E4 E0 E6"/>
    </vehicle>
    <vehicle id="veh547" depart="798.31">
        <route edges="-E10 E11 E13"/>
    </vehicle>
    <vehicle id="veh1039" depart="800.46">
        <route edges="-E9 E10"/>
    </vehicle>
    <vehicle id="veh1558" depart="801.87">
        <route edges="-E9 E11 E13"/>
    </vehicle>
    <vehicle id="veh619" depart="806.82">
        <route edges="-E13 -E11 E10"/>
    </vehicle>
    <vehicle id="veh703" depart="809.53">
        <route edges="-E4 E0 E6"/>
    </vehicle>
    <vehicle id="veh1664" depart="809.85">
        <route edges="-E14 -E8 E7 E10"/>
    </vehicle>
    <vehicle id="veh1372" depart="812.87">
        <route edges="-E14 -E8 E6"/>
    </vehicle>
    <vehicle id="veh1964" depart="813.10">
        <route edges="-E4 E0 E7 E10"/>
    </vehicle>
    <vehicle id="veh726" depart="813.19">
        <route edges="-E4 E0 E7 E11 E13"/>
    </vehicle>
    <vehicle id="veh1714" depart="814.08">
        <route edges="-E10 -E7 E6"/>
    </vehicle>
    <vehicle id="veh1166" depart="818.38">
        <route edges="-E2 E3 -E8 E6"/>
    </vehicle>
    <vehicle id="veh732" depart="821.62">
        <route edges="-E2 -E1 E4"/>
    </vehicle>
    <vehicle id="veh1802" depart="823.18">
        <route edges="-E9 -E7 E6"/>
    </vehicle>
    <vehicle id="veh1578" depart="824.39">
        <route edges="-E9 E10"/>
    </vehicle>
    <vehicle id="veh1745" depart="824.57">
        <route edges="-E10 E11 -E12 -E8 E7 E10"/>
    </vehicle>
    <vehicle id="veh1085" depart="825.03">
        <route edges="-E10 -E7 E6"/>
    </vehicle>
    <vehicle id="veh1678" depart="825.19">
        <route edges="-E10 E11 -E12 -E8 E7 E10"/>
    </vehicle>
    <vehicle id="veh434" depart="825.83">
        <route edges="-E4 E0 E6"/>
    </vehicle>
    <vehicle id="veh1660" depart="826.81">
        <route edges="-E9 E10"/>
    </vehicle>
    <vehicle id="veh1276" depart="826.83">
        <route edges="-E4 E0 E6"/>
    </vehicle>
    <vehicle id="veh681" depart="828.95">
        <route edges="-E2 E3 E12 E13"/>
    </vehicle>
    <vehicle id="veh1684" depart="829.92">
        <route edges="-E6 E7 E10"/>
    </vehicle>
    <vehicle id="veh1926" depart="830.30">
        <route edges="-E2 E3 -E8 E6"/>
    </vehicle>
    <vehicle id="veh1754" depart="830.46">
        <route edges="-E14 -E8 -E0 E4"/>
    </vehicle>
    <vehicle id="veh772" depart="830.87">
        <route edges="-E9 -E7 E6"/>
    </vehicle>
    <vehicle id="veh1302" depart="831.13">
        <route edges="-E4 E0 E7 E9"/>
    </vehicle>
    <vehicle id="veh318" depart="831.23">
        <route edges="-E4 E0 E6"/>
    </vehicle>
    <vehicle id="veh1812" depart="835.78">
        <route edges="-E9 E11 E13"/>
    </vehicle>
    <vehicle id="veh1479" depart="835.95">
        <route edges="-E4 E0 E6"/>
    </vehicle>
    <vehicle id="veh894" depart="835.96">
        <route edges="-E9 E10"/>
    </vehicle>
    <vehicle id="veh819" depart="836.95">
        <route edges="-E13 -E12 -E8 E7 E11 E13"/>
    </vehicle>
    <vehicle id="veh178" depart="837.07">
        <route edges="-E9 E10"/>
    </vehicle>
    <vehicle id="veh949" depart="839.14">
        <route edges="-E6 E8 E12 E13"/>
    </vehicle>
    <vehicle id="veh1656" depart="839.99">
        <route edges="-E10 E11 E13"/>
    </vehicle>
    <vehicle id="veh327" depart="841.91">
        <route edges="-E10 E11 E13"/>
    </vehicle>
    <vehicle id="veh1588" depart="843.03">
        <route edges="-E6 E7 E10"/>
    </vehicle>
    <vehicle id="veh171" depart="843.40">
        <route edges="-E10 -E7 -E0 E4"/>
    </vehicle>
    <vehicle id="veh1938" depart="844.68">
        <route edges="-E2 E3 E12 E13"/>
    </vehicle>
    <vehicle id="veh591" depart="846.01">
        <route edges="-E6 E8 E14"/>
    </vehicle>
    <vehicle id="veh684" depart="846.51">
        <route edges="-E13 -E12 E14"/>
    </vehicle>
    <vehicle id="veh1994" depart="846.95">
        <route edges="-E6 E8 E14"/>
    </vehicle>
    <vehicle id="veh1731" depart="847.33">
        <route edges="-E10 E11 -E12 -E8 E7 E10"/>
    </vehicle>
    <vehicle id="veh1456" depart="848.14">
        <route edges="-E13 -E11 E10"/>
    </vehicle>
    <vehicle id="veh1108" depart="849.76">
        <route edges="-E6 E8 E12 E13"/>
    </vehicle>
    <vehicle id="veh998" depart="849.85">
        <route edges="-E10 E11 E13"/>
    </vehicle>
    <vehicle id="veh1607" depart="851.44">
        <route edges="-E10 -E7 E6"/>
    </vehicle>
    <vehicle id="veh1849" depart="855.97">
        <route edges="-E2 E3 E14"/>
    </vehicle>
    <vehicle id="veh1494" depart="856.49">
        <route edges="-E13 -E12 -E8 E7 E11 E13"/>
    </vehicle>
    <vehicle id="veh889" depart="857.42">
        <route edges="-E13 -E12 -E8 E7 E11 E13"/>
    </vehicle>
    <vehicle id="veh274" depart="858.95">
        <route edges="-E6 E7 E10"/>
    </vehicle>
    <vehicle id="veh1487" depart="860.36">
        <route edges="-E6 E8 E12 E13"/>
    </vehicle>
    <vehicle id="veh871" depart="860.89">
        <route edges="-E10 -E7 E6"/>
    </vehicle>
    <vehicle id="veh917" depart="860.94">
        <route edges="-E6 E5 -E1 E0 E6"/>
    </vehicle>
    <vehicle id="veh1735" depart="862.55">
        <route edges="-E13 -E11 E10"/>
    </vehicle>
    <vehicle id="veh185" depart="864.52">
        <route edges="-E13 -E12 -E8 E7 E11 E13"/>
    </vehicle>
    <vehicle id="veh1413" depart="864.69">
        <route edges="-E2 -E1 E0 E7 E10"/>
    </vehicle>
    <vehicle id="veh57" depart="864.95">
        <route edges="-E10 E11 E13"/>
    </vehicle>
    <vehicle id="veh1446" depart="867.39">
        <route edges="-E10 -E7 E6"/>
    </vehicle>
    <vehicle id="veh286" depart="867.57">
        <route edges="-E6 E7 E9"/>
    </vehicle>
    <vehicle id="veh1238" depart="867.97">
        <route edges="-E9 -E7 -E0 E4"/>
    </vehicle>
    <vehicle id="veh1155" depart="868.46">
        <route edges="-E14 E12 E13"/>
    </vehicle>
    <vehicle id="veh1803" depart="870.99">
        <route edges="-E14 -E8 E7 E10"/>
    </vehicle>
    <vehicle id="veh1324" depart="871.47">
        <route edges="-E6 E8 E12 E13"/>
    </vehicle>
    <vehicle id="veh235" depart="872.36">
        <route edges="-E2 E3 E12 E13"/>
    </vehicle>
    <vehicle id="veh340" depart="872.52">
        <route edges="-E10 E11 -E12 -E8 E7 E10"/>
    </vehicle>
    <vehicle id="veh1756" depart="875.37">
        <route edges="-E10 -E7 E6"/>
    </vehicle>
    <vehicle id="veh846" depart="875.44">
        <route edges="-E14 E12 E13"/>
    </vehicle>
    <vehicle id="veh863" depart="877.75">
        <route edges="-E2 -E1 E0 E7 E10"/>
    </vehicle>
    <vehicle id="veh501" depart="877.96">
        <route edges="-E4 E0 E7 E11 E13"/>
    </vehicle>
    <vehicle id="veh137" depart="878.18">
        <route edges="-E4 E0 E7 E11 E13"/>
    </vehicle>
    <vehicle id="veh823" depart="878.28">
        <route edges="-E4 E0 E7 E11 E13"/>
    </vehicle>
    <vehicle id="veh1306" depart="878.80">
        <route edges="-E9 -E7 E6"/>
    </vehicle>
    <vehicle id="veh189" depart="880.17">
        <route edges="-E4 E0 E7 E11 E13"/>
    </vehicle>
    <vehicle id="veh1675" depart="880.82">
        <route edges="-E2 -E1 E0 E7 E10"/>
    </vehicle>
    <vehicle id="veh278" depart="883.16">
        <route edges="-E14 -E8 E7 E10"/>
    </vehicle>
    <vehicle id="veh1160" depart="883.90">
        <route edges="-E10 E11 E13"/>
    </vehicle>
    <vehicle id="veh1851" depart="885.09">
        <route edges="-E9 -E7 E6"/>
    </vehicle>
    <vehicle id="veh1410" depart="886.32">
        <route edges="-E6 E5 -E1 E0 E6"/>
    </vehicle>
    <vehicle id="veh752" depart="886.54">
        <route edges="-E4 E0 E7 E10"/>
    </vehicle>
    <vehicle id="veh243" depart="887.01">
        <route edges="-E6 E8 E12 E13"/>
    </vehicle>
    <vehicle id="veh539" depart="891.53">
        <route edges="-E4 E0 E7 E11 E13"/>
    </vehicle>
    <vehicle id="veh862" depart="892.32">
        <route edges="-E4 E0 E7 E10"/>
    </vehicle>
    <vehicle id="veh1045" depart="892.54">
        <route edges="-E6 E5 -E1 E0 E6"/>
    </vehicle>
    <vehicle id="veh1209" depart="892.61">