<?xml version="1.0" encoding="UTF-8"?>

<!-- generated on 2026-06-15T16:41:06.616827+01:00 by Eclipse SUMO duarouter 1.27.0
<duarouterConfiguration xmlns:xsi="http://www.w3.org/2001/XMLSchema-instance" xsi:noNamespaceSchemaLocation="http://sumo.dlr.de/xsd/duarouterConfiguration.xsd">

    <input>
        <net-file value="C:\Users\RODO\Desktop\Sys auto - Projekt\src\City_map_2\city2.net.xml"/>
        <route-files value="C:\Users\RODO\AppData\Local\Temp\city2_eval.trips.xml"/>
    </input>

    <output>
        <output-file value="C:\Users\RODO\Desktop\Sys auto - Projekt\src\City_map_2\city2_eval.rou.xml"/>
    </output>

    <report>
        <no-warnings value="true"/>
        <ignore-errors value="true"/>
    </report>

    <random_number>
        <seed value="9999"/>
    </random_number>

</duarouterConfiguration>
-->

<routes xmlns:xsi="http://www.w3.org/2001/XMLSchema-instance" xsi:noNamespaceSchemaLocation="http://sumo.dlr.de/xsd/routes_file.xsd">
    <vehicle id="veh1030" depart="10.45">
        <route edges="-E4 E0 E6"/>
    </vehicle>
    <vehicle id="veh946" depart="12.83">
        <route edges="-E13 -E11 E10"/>
    </vehicle>
    <vehicle id="veh434" depart="19.96">
        <route edges="-E14 -E8 E6"/>
    </vehicle>
    <vehicle id="veh41" depart="22.50">
        <route edges="-E2 E3 E12 E13"/>
    </vehicle>
    <vehicle id="veh144" depart="25.71">
        <route edges="-E14 -E8 E6"/>
    </vehicle>
    <vehicle id="veh603" depart="26.29">
        <route edges="-E13 -E12 -E8 E7 E11 E13"/>
    </vehicle>
    <vehicle id="veh258" depart="28.13">
        <route edges="-E4 E0 E7 E10"/>
    </vehicle>
    <vehicle id="veh751" depart="28.93">
        <route edges="-E13 -E12 -E8 E7 E11 E13"/>
    </vehicle>
    <vehicle id="veh613" depart="33.46">
        <route edges="-E9 E11 E13"/>
    </vehicle>
    <vehicle id="veh50" depart="33.57">
        <route edges="-E4 E0 E7 E9"/>
    </vehicle>
    <vehicle id="veh642" depart="33.60">
        <route edges="-E10 E11 -E12 -E8 E7 E10"/>
    </vehicle>
    <vehicle id="veh1158" depart="35.16">
        <route edges="-E2 E3 E14"/>
    </vehicle>
    <vehicle id="veh55" depart="35.66">
        <route edges="-E13 -E12 -E8 E6"/>
    </vehicle>
    <vehicle id="veh672" depart="39.78">
        <route edges="-E6 E7 E10"/>
    </vehicle>
    <vehicle id="veh1094" depart="46.17">
        <route edges="-E14 E12 E13"/>
    </vehicle>
    <vehicle id="veh806" depart="46.93">
        <route edges="-E10 E11 -E12 -E8 E7 E10"/>
    </vehicle>
    <vehicle id="veh907" depart="47.29">
        <route edges="-E9 E11 -E12 E14"/>
    </vehicle>
    <vehicle id="veh682" depart="48.78">
        <route edges="-E13 -E11 E10"/>
    </vehicle>
    <vehicle id="veh888" depart="54.46">
        <route edges="-E2 E3 E14"/>
    </vehicle>
    <vehicle id="veh1009" depart="57.60">
        <route edges="-E13 -E11 E10"/>
    </vehicle>
    <vehicle id="veh750" depart="57.67">
        <route edges="-E6 E8 E12 E13"/>
    </vehicle>
    <vehicle id="veh1122" depart="57.88">
        <route edges="-E4 E0 E7 E11 E13"/>
    </vehicle>
    <vehicle id="veh96" depart="64.98">
        <route edges="-E14 E12 E13"/>
    </vehicle>
    <vehicle id="veh228" depart="65.55">
        <route edges="-E13 -E12 -E8 E6"/>
    </vehicle>
    <vehicle id="veh261" depart="66.75">
        <route edges="-E14 -E8 E6"/>
    </vehicle>
    <vehicle id="veh421" depart="68.91">
        <route edges="-E4 E0 E6"/>
    </vehicle>
    <vehicle id="veh94" depart="69.09">
        <route edges="-E4 E0 E7 E11 E13"/>
    </vehicle>
    <vehicle id="veh165" depart="69.95">
        <route edges="-E2 E3 -E8 E6"/>
    </vehicle>
    <vehicle id="veh1043" depart="79.41">
        <route edges="-E9 -E7 E6"/>
    </vehicle>
    <vehicle id="veh861" depart="82.29">
        <route edges="-E14 -E8 E7 E10"/>
    </vehicle>
    <vehicle id="veh694" depart="82.77">
        <route edges="-E10 E11 -E12 -E8 E7 E10"/>
    </vehicle>
    <vehicle id="veh1099" depart="91.59">
        <route edges="-E9 E11 E13"/>
    </vehicle>
    <vehicle id="veh1103" depart="94.19">
        <route edges="-E10 E11 -E12 -E8 E7 E10"/>
    </vehicle>
    <vehicle id="veh83" depart="104.82">
        <route edges="-E14 -E8 E6"/>
    </vehicle>
    <vehicle id="veh470" depart="105.25">
        <route edges="-E10 -E7 E6"/>
    </vehicle>
    <vehicle id="veh842" depart="115.93">
        <route edges="-E14 -E8 E6"/>
    </vehicle>
    <vehicle id="veh623" depart="116.12">
        <route edges="-E6 E5 E2"/>
    </vehicle>
    <vehicle id="veh773" depart="118.34">
        <route edges="-E6 E7 E10"/>
    </vehicle>
    <vehicle id="veh1139" depart="122.56">
        <route edges="-E14 -E8 -E0 E4"/>
    </vehicle>
    <vehicle id="veh442" depart="130.77">
        <route edges="-E10 -E7 E6"/>
    </vehicle>
    <vehicle id="veh24" depart="135.09">
        <route edges="-E10 -E7 E8 E14"/>
    </vehicle>
    <vehicle id="veh23" depart="147.26">
        <route edges="-E10 -E7 E5 E2"/>
    </vehicle>
    <vehicle id="veh945" depart="148.90">
        <route edges="-E9 -E7 E6"/>
    </vehicle>
    <vehicle id="veh255" depart="149.57">
        <route edges="-E6 E8 E14"/>
    </vehicle>
    <vehicle id="veh621" depart="150.80">
        <route edges="-E14 -E8 E6"/>
    </vehicle>
    <vehicle id="veh880" depart="155.22">
        <route edges="-E14 -E3 E2"/>
    </vehicle>
    <vehicle id="veh1107" depart="157.01">
        <route edges="-E4 E0 E7 E9"/>
    </vehicle>
    <vehicle id="veh66" depart="158.90">
        <route edges="-E4 E0 E6"/>
    </vehicle>
    <vehicle id="veh109" depart="162.70">
        <route edges="-E13 -E12 -E8 E7 E11 E13"/>
    </vehicle>
    <vehicle id="veh666" depart="165.31">
        <route edges="-E10 -E7 E6"/>
    </vehicle>
    <vehicle id="veh467" depart="166.74">
        <route edges="-E6 E8 E12 E13"/>
    </vehicle>
    <vehicle id="veh156" depart="173.66">
        <route edges="-E13 -E12 -E8 E7 E11 E13"/>
    </vehicle>
    <vehicle id="veh199" depart="173.87">
        <route edges="-E13 -E12 -E8 E6"/>
    </vehicle>
    <vehicle id="veh500" depart="174.48">
        <route edges="-E2 E3 E12 E13"/>
    </vehicle>
    <vehicle id="veh174" depart="176.79">
        <route edges="-E6 E5 -E1 E0 E6"/>
    </vehicle>
    <vehicle id="veh278" depart="178.67">
        <route edges="-E6 E7 E9"/>
    </vehicle>
    <vehicle id="veh1074" depart="179.87">
        <route edges="-E10 E11 -E12 -E8 E7 E10"/>
    </vehicle>
    <vehicle id="veh659" depart="183.56">
        <route edges="-E14 E12 E13"/>
    </vehicle>
    <vehicle id="veh711" depart="185.10">
        <route edges="-E6 E8 E12 E13"/>
    </vehicle>
    <vehicle id="veh84" depart="186.29">
        <route edges="-E9 E11 -E12 E14"/>
    </vehicle>
    <vehicle id="veh1117" depart="187.67">
        <route edges="-E13 -E12 -E8 E7 E11 E13"/>
    </vehicle>
    <vehicle id="veh505" depart="189.97">
        <route edges="-E6 E5 -E1 E0 E6"/>
    </vehicle>
    <vehicle id="veh205" depart="191.39">
        <route edges="-E4 E0 E7 E11 E13"/>
    </vehicle>
    <vehicle id="veh874" depart="191.40">
        <route edges="-E2 E3 -E8 E6"/>
    </vehicle>
    <vehicle id="veh293" depart="193.08">
        <route edges="-E9 E10"/>
    </vehicle>
    <vehicle id="veh838" depart="194.16">
        <route edges="-E13 -E12 -E8 E7 E11 E13"/>
    </vehicle>
    <vehicle id="veh385" depart="197.86">
        <route edges="-E2 E3 E14"/>
    </vehicle>
    <vehicle id="veh489" depart="198.90">
        <route edges="-E2 E3 E12 -E11 E9"/>
    </vehicle>
    <vehicle id="veh763" depart="199.77">
        <route edges="-E9 E10"/>
    </vehicle>
    <vehicle id="veh134" depart="201.73">
        <route edges="-E13 -E12 -E3 -E1 E4"/>
    </vehicle>
    <vehicle id="veh1116" depart="202.24">
        <route edges="-E10 -E7 E5 E2"/>
    </vehicle>
    <vehicle id="veh1109" depart="204.57">
        <route edges="-E9 E11 -E12 -E8 E7 E9"/>
    </vehicle>
    <vehicle id="veh622" depart="204.94">
        <route edges="-E10 -E7 E6"/>
    </vehicle>
    <vehicle id="veh810" depart="210.25">
        <route edges="-E10 E11 E13"/>
    </vehicle>
    <vehicle id="veh825" depart="211.68">
        <route edges="-E10 E11 -E12 -E8 E7 E10"/>
    </vehicle>
    <vehicle id="veh363" depart="214.52">
        <route edges="-E13 -E11 E10"/>
    </vehicle>
    <vehicle id="veh280" depart="215.66">
        <route edges="-E13 -E11 E10"/>
    </vehicle>
    <vehicle id="veh908" depart="216.59">
        <route edges="-E13 -E11 E9"/>
    </vehicle>
    <vehicle id="veh232" depart="217.39">
        <route edges="-E6 E5 E2"/>
    </vehicle>
    <vehicle id="veh913" depart="223.47">
        <route edges="-E6 E7 E10"/>
    </vehicle>
    <vehicle id="veh815" depart="224.74">
        <route edges="-E6 E8 E12 E13"/>
    </vehicle>
    <vehicle id="veh351" depart="226.35">
        <route edges="-E9 E10"/>
    </vehicle>
    <vehicle id="veh462" depart="226.88">
        <route edges="-E4 E1 E2"/>
    </vehicle>
    <vehicle id="veh335" depart="227.15">
        <route edges="-E10 -E7 E6"/>
    </vehicle>
    <vehicle id="veh526" depart="228.81">
        <route edges="-E6 E8 E12 E13"/>
    </vehicle>
    <vehicle id="veh845" depart="232.72">
        <route edges="-E2 -E1 E0 E7 E10"/>
    </vehicle>
    <vehicle id="veh734" depart="235.31">
        <route edges="-E10 -E7 E5 E2"/>
    </vehicle>
    <vehicle id="veh655" depart="236.11">
        <route edges="-E4 E0 E8 E14"/>
    </vehicle>
    <vehicle id="veh1071" depart="236.23">
        <route edges="-E6 E7 E10"/>
    </vehicle>
    <vehicle id="veh331" depart="239.50">
        <route edges="-E4 E0 E7 E9"/>
    </vehicle>
    <vehicle id="veh1019" depart="243.56">
        <route edges="-E9 E10"/>
    </vehicle>
    <vehicle id="veh987" depart="244.77">
        <route edges="-E6 -E0 E4"/>
    </vehicle>
    <vehicle id="veh620" depart="247.03">
        <route edges="-E13 -E11 E10"/>
    </vehicle>
    <vehicle id="veh993" depart="251.56">
        <route edges="-E10 -E7 E6"/>
    </vehicle>
    <vehicle id="veh3" depart="252.62">
        <route edges="-E13 -E12 -E8 E7 E11 E13"/>
    </vehicle>
    <vehicle id="veh1067" depart="253.18">
        <route edges="-E13 -E11 E10"/>
    </vehicle>
    <vehicle id="veh649" depart="254.30">
        <route edges="-E14 -E8 -E0 E4"/>
    </vehicle>
    <vehicle id="veh1089" depart="254.47">
        <route edges="-E2 -E1 E0 E7 E10"/>
    </vehicle>
    <vehicle id="veh192" depart="257.02">
        <route edges="-E14 E12 E13"/>
    </vehicle>
    <vehicle id="veh423" depart="258.38">
        <route edges="-E2 E3 E12 E13"/>
    </vehicle>
    <vehicle id="veh38" depart="262.86">
        <route edges="-E14 -E8 E5 E3 E14"/>
    </vehicle>
    <vehicle id="veh811" depart="263.80">
        <route edges="-E4 E0 E6"/>
    </vehicle>
    <vehicle id="veh1114" depart="267.62">
        <route edges="-E6 E5 E2"/>
    </vehicle>
    <vehicle id="veh803" depart="268.44">
        <route edges="-E10 E11 -E12 -E8 E7 E10"/>
    </vehicle>
    <vehicle id="veh1195" depart="271.79">
        <route edges="-E2 E3 -E8 E6"/>
    </vehicle>
    <vehicle id="veh1064" depart="272.11">
        <route edges="-E9 E10"/>
    </vehicle>
    <vehicle id="veh259" depart="273.87">
        <route edges="-E9 E11 E13"/>
    </vehicle>
    <vehicle id="veh33" depart="275.29">
        <route edges="-E10 E11 -E12 -E8 E7 E10"/>
    </vehicle>
    <vehicle id="veh218" depart="278.95">
        <route edges="-E6 E8 E12 E13"/>
    </vehicle>
    <vehicle id="veh77" depart="280.83">
        <route edges="-E14 -E8 E7 E10"/>
    </vehicle>
    <vehicle id="veh1016" depart="281.66">
        <route edges="-E13 -E12 -E3 -E1 E4"/>
    </vehicle>
    <vehicle id="veh282" depart="282.72">
        <route edges="-E9 E11 E13"/>
    </vehicle>
    <vehicle id="veh1180" depart="282.77">
        <route edges="-E9 E11 E13"/>
    </vehicle>
    <vehicle id="veh841" depart="285.16">
        <route edges="-E14 -E8 E6"/>
    </vehicle>
    <vehicle id="veh1073" depart="287.14">
        <route edges="-E4 E0 E7 E10"/>
    </vehicle>
    <vehicle id="veh576" depart="288.29">
        <route edges="-E14 E12 E13"/>
    </vehicle>
    <vehicle id="veh561" depart="290.00">
        <route edges="-E14 -E3 E2"/>
    </vehicle>
    <vehicle id="veh896" depart="290.87">
        <route edges="-E2 E3 E12 E13"/>
    </vehicle>
    <vehicle id="veh37" depart="292.89">
        <route edges="-E4 E0 E7 E11 E13"/>
    </vehicle>
    <vehicle id="veh821" depart="293.40">
        <route edges="-E14 -E8 E6"/>
    </vehicle>
    <vehicle id="veh61" depart="293.86">
        <route edges="-E2 E3 -E8 E6"/>
    </vehicle>
    <vehicle id="veh915" depart="296.29">
        <route edges="-E6 E8 E12 E13"/>
    </vehicle>
    <vehicle id="veh327" depart="297.59">
        <route edges="-E9 -E7 E6"/>
    </vehicle>
    <vehicle id="veh1084" depart="300.53">
        <route edges="-E14 -E8 E7 E10"/>
    </vehicle>
    <vehicle id="veh506" depart="300.85">
        <route edges="-E14 -E8 E5 E3 E14"/>
    </vehicle>
    <vehicle id="veh248" depart="303.14">
        <route edges="-E13 -E12 E14"/>
    </vehicle>
    <vehicle id="veh961" depart="306.12">
        <route edges="-E2 E3 E12 -E11 E9"/>
    </vehicle>
    <vehicle id="veh1120" depart="306.54">
        <route edges="-E14 -E8 E6"/>
    </vehicle>
    <vehicle id="veh370" depart="308.52">
        <route edges="-E13 -E12 -E3 E2"/>
    </vehicle>
    <vehicle id="veh468" depart="309.30">
        <route edges="-E14 -E8 E7 E10"/>
    </vehicle>
    <vehicle id="veh1029" depart="310.59">
        <route edges="-E10 -E7 E8 E14"/>
    </vehicle>
    <vehicle id="veh91" depart="313.48">
        <route edges="-E13 -E11 E9"/>
    </vehicle>
    <vehicle id="veh698" depart="313.71">
        <route edges="-E4 E0 E6"/>
    </vehicle>
    <vehicle id="veh531" depart="319.43">
        <route edges="-E6 -E0 E4"/>
    </vehicle>
    <vehicle id="veh1091" depart="320.79">
        <route edges="-E14 -E8 E7 E10"/>
    </vehicle>
    <vehicle id="veh1053" depart="321.86">
        <route edges="-E10 E11 -E12 -E8 E7 E10"/>
    </vehicle>
    <vehicle id="veh733" depart="326.41">
        <route edges="-E10 E11 E13"/>
    </vehicle>
    <vehicle id="veh753" depart="327.33">
        <route edges="-E9 E10"/>
    </vehicle>
    <vehicle id="veh647" depart="331.12">
        <route edges="-E2 E3 -E8 E6"/>
    </vehicle>
    <vehicle id="veh805" depart="331.85">
        <route edges="-E10 E11 E13"/>
    </vehicle>
    <vehicle id="veh81" depart="332.86">
        <route edges="-E13 -E12 -E8 E7 E11 E13"/>
    </vehicle>
    <vehicle id="veh535" depart="333.52">
        <route edges="-E14 -E8 E6"/>
    </vehicle>
    <vehicle id="veh818" depart="334.98">
        <route edges="-E14 -E8 E6"/>
    </vehicle>
    <vehicle id="veh167" depart="343.44">
        <route edges="-E13 -E12 -E8 E6"/>
    </vehicle>
    <vehicle id="veh373" depart="346.04">
        <route edges="-E4 E0 E7 E10"/>
    </vehicle>
    <vehicle id="veh688" depart="346.75">
        <route edges="-E9 E10"/>
    </vehicle>
    <vehicle id="veh349" depart="349.61">
        <route edges="-E6 E5 -E1 E0 E6"/>
    </vehicle>
    <vehicle id="veh881" depart="351.86">
        <route edges="-E6 E8 E12 E13"/>
    </vehicle>
    <vehicle id="veh114" depart="358.85">
        <route edges="-E13 -E12 -E8 E6"/>
    </vehicle>
    <vehicle id="veh1175" depart="362.44">
        <route edges="-E10 E11 -E12 -E8 E7 E10"/>
    </vehicle>
    <vehicle id="veh295" depart="362.68">
        <route edges="-E13 -E11 E10"/>
    </vehicle>
    <vehicle id="veh998" depart="364.76">
        <route edges="-E2 E3 E12 E13"/>
    </vehicle>
    <vehicle id="veh862" depart="368.69">
        <route edges="-E9 E10"/>
    </vehicle>
    <vehicle id="veh645" depart="369.14">
        <route edges="-E10 E11 -E12 -E8 E7 E10"/>
    </vehicle>
    <vehicle id="veh1198" depart="369.82">
        <route edges="-E4 E0 E7 E11 E13"/>
    </vehicle>
    <vehicle id="veh316" depart="372.10">
        <route edges="-E10 -E7 E6"/>
    </vehicle>
    <vehicle id="veh633" depart="374.58">
        <route edges="-E4 E0 E6"/>
    </vehicle>
    <vehicle id="veh350" depart="375.13">
        <route edges="-E6 E8 E12 E13"/>
    </vehicle>
    <vehicle id="veh988" depart="380.70">
        <route edges="-E10 -E7 E6"/>
    </vehicle>
    <vehicle id="veh1130" depart="384.46">
        <route edges="-E10 E11 E13"/>
    </vehicle>
    <vehicle id="veh301" depart="387.78">
        <route edges="-E9 -E7 E6"/>
    </vehicle>
    <vehicle id="veh352" depart="389.32">
        <route edges="-E13 -E11 E9"/>
    </vehicle>
    <vehicle id="veh439" depart="389.90">
        <route edges="-E9 -E7 E5 E2"/>
    </vehicle>
    <vehicle id="veh273" depart="390.47">
        <route edges="-E14 -E8 E6"/>
    </vehicle>
    <vehicle id="veh848" depart="393.04">
        <route edges="-E6 E8 E12 E13"/>
    </vehicle>
    <vehicle id="veh0" depart="393.25">
        <route edges="-E9 -E7 E6"/>
    </vehicle>
    <vehicle id="veh1164" depart="394.19">
        <route edges="-E10 E11 -E12 -E8 E7 E10"/>
    </vehicle>
    <vehicle id="veh453" depart="396.75">
        <route edges="-E14 -E8 E6"/>
    </vehicle>
    <vehicle id="veh837" depart="398.28">
        <route edges="-E10 E11 E13"/>
    </vehicle>
    <vehicle id="veh721" depart="398.78">
        <route edges="-E10 E11 -E12 -E8 E7 E10"/>
    </vehicle>
    <vehicle id="veh639" depart="398.84">
        <route edges="-E4 E0 E7 E9"/>
    </vehicle>
    <vehicle id="veh1182" depart="400.18">
        <route edges="-E2 E3 -E8 E6"/>
    </vehicle>
    <vehicle id="veh860" depart="403.97">
        <route edges="-E14 -E3 E2"/>
    </vehicle>
    <vehicle id="veh1104" depart="412.02">
        <route edges="-E6 E8 E12 E13"/>
    </vehicle>
    <vehicle id="veh1162" depart="420.00">
        <route edges="-E6 E5 -E1 E0 E6"/>
    </vehicle>
    <vehicle id="veh510" depart="421.96">
        <route edges="-E2 -E1 E4"/>
    </vehicle>
    <vehicle id="veh912" depart="423.32">
        <route edges="-E2 E3 E12 E13"/>
    </vehicle>
    <vehicle id="veh643" depart="427.34">
        <route edges="-E4 E0 E8 E14"/>
    </vehicle>
    <vehicle id="veh967" depart="433.43">
        <route edges="-E13 -E12 -E8 E6"/>
    </vehicle>
    <vehicle id="veh831" depart="435.55">
        <route edges="-E14 -E8 E7 E10"/>
    </vehicle>
    <vehicle id="veh1148" depart="436.78">
        <route edges="-E13 -E12 -E3 E2"/>
    </vehicle>
    <vehicle id="veh364" depart="437.98">
        <route edges="-E9 E11 E13"/>
    </vehicle>
    <vehicle id="veh400" depart="439.54">
        <route edges="-E9 E10"/>
    </vehicle>
    <vehicle id="veh856" depart="439.73">
        <route edges="-E9 -E7 E6"/>
    </vehicle>
    <vehicle id="veh57" depart="440.24">
        <route edges="-E4 E1 E2"/>
    </vehicle>
    <vehicle id="veh970" depart="441.16">
        <route edges="-E13 -E12 -E8 E7 E11 E13"/>
    </vehicle>
    <vehicle id="veh321" depart="442.85">
        <route edges="-E13 -E12 -E8 E7 E11 E13"/>
    </vehicle>
    <vehicle id="veh956" depart="447.24">
        <route edges="-E4 E0 E7 E9"/>
    </vehicle>
    <vehicle id="veh1049" depart="453.24">
        <route edges="-E2 E3 -E8 E6"/>
    </vehicle>
    <vehicle id="veh1192" depart="455.48">
        <route edges="-E6 E5 -E1 E0 E6"/>
    </vehicle>
    <vehicle id="veh215" depart="457.33">
        <route edges="-E10 -E7 E6"/>
    </vehicle>
    <vehicle id="veh679" depart="463.70">
        <route edges="-E10 -E7 E6"/>
    </vehicle>
    <vehicle id="veh1137" depart="464.99">
        <route edges="-E9 E11 E13"/>
    </vehicle>
    <vehicle id="veh1102" depart="466.65">
        <route edges="-E14 -E8 E6"/>
    </vehicle>
    <vehicle id="veh216" depart="468.37">
        <route edges="-E6 E5 E2"/>
    </vehicle>
    <vehicle id="veh256" depart="470.90">
        <route edges="-E2 E3 -E8 E6"/>
    </vehicle>
    <vehicle id="veh832" depart="474.41">
        <route edges="-E6 E5 -E1 E0 E6"/>
    </vehicle>
    <vehicle id="veh382" depart="474.61">
        <route edges="-E10 -E7 E6"/>
    </vehicle>
    <vehicle id="veh929" depart="474.89">
        <route edges="-E10 E11 -E12 -E8 E7 E10"/>
    </vehicle>
    <vehicle id="veh157" depart="475.88">
        <route edges="-E4 E0 E5 -E1 E4"/>
    </vehicle>
    <vehicle id="veh770" depart="476.36">
        <route edges="-E4 E0 E6"/>
    </vehicle>
    <vehicle id="veh271" depart="479.28">
        <route edges="-E6 E8 E12 E13"/>
    </vehicle>
    <vehicle id="veh490" depart="482.61">
        <route edges="-E2 E3 -E8 E6"/>
    </vehicle>
    <vehicle id="veh405" depart="483.58">
        <route edges="-E6 E5 -E1 E0 E6"/>
    </vehicle>
    <vehicle id="veh514" depart="485.76">
        <route edges="-E4 E0 E6"/>
    </vehicle>
    <vehicle id="veh846" depart="486.35">
        <route edges="-E6 E5 E2"/>
    </vehicle>
    <vehicle id="veh337" depart="488.98">
        <route edges="-E6 E5 -E1 E0 E6"/>
    </vehicle>
    <vehicle id="veh198" depart="503.62">
        <route edges="-E13 -E12 -E8 E7 E11 E13"/>
    </vehicle>
    <vehicle id="veh90" depart="503.86">
        <route edges="-E4 E0 E7 E10"/>
    </vehicle>
    <vehicle id="veh479" depart="504.20">
        <route edges="-E4 E0 E7 E11 E13"/>
    </vehicle>
    <vehicle id="veh1083" depart="505.17">
        <route edges="-E9 -E7 E6"/>
    </vehicle>
    <vehicle id="veh1167" depart="506.13">
        <route edges="-E2 E3 -E8 E6"/>
    </vehicle>
    <vehicle id="veh538" depart="513.94">
        <route edges="-E2 -E1 E0 E7 E10"/>
    </vehicle>
    <vehicle id="veh637" depart="513.96">
        <route edges="-E2 E3 E12 E13"/>
    </vehicle>
    <vehicle id="veh903" depart="514.30">
        <route edges="-E13 -E11 E10"/>
    </vehicle>
    <vehicle id="veh177" depart="518.54">
        <route edges="-E6 E8 E12 E13"/>
    </vehicle>
    <vehicle id="veh407" depart="525.26">
        <route edges="-E4 E0 E6"/>
    </vehicle>
    <vehicle id="veh524" depart="526.51">
        <route edges="-E4 E1 E2"/>
    </vehicle>
    <vehicle id="veh934" depart="529.14">
        <route edges="-E6 E5 E2"/>
    </vehicle>
    <vehicle id="veh214" depart="530.45">
        <route edges="-E9 E11 -E12 -E8 E7 E9"/>
    </vehicle>
    <vehicle id="veh99" depart="532.06">
        <route edges="-E9 -E7 E6"/>
    </vehicle>
    <vehicle id="veh53" depart="533.16">
        <route edges="-E2 E3 E12 E13"/>
    </vehicle>
    <vehicle id="veh401" depart="533.90">
        <route edges="-E14 -E8 E7 E10"/>
    </vehicle>
    <vehicle id="veh459" depart="534.21">
        <route edges="-E9 -E7 -E0 E4"/>
    </vehicle>
    <vehicle id="veh625" depart="535.86">
        <route edges="-E6 E7 E10"/>
    </vehicle>
    <vehicle id="veh933" depart="541.24">
        <route edges="-E4 E0 E7 E10"/>
    </vehicle>
    <vehicle id="veh391" depart="544.20">
        <route edges="-E14 E12 E13"/>
    </vehicle>
    <vehicle id="veh1085" depart="544.71">
        <route edges="-E9 E11 -E12 E14"/>
    </vehicle>
    <vehicle id="veh5" depart="546.58">
        <route edges="-E13 -E11 E9"/>
    </vehicle>
    <vehicle id="veh540" depart="547.55">
        <route edges="-E4 E0 E8 E14"/>
    </vehicle>
    <vehicle id="veh306" depart="548.81">
        <route edges="-E10 -E7 -E0 E4"/>
    </vehicle>
    <vehicle id="veh1176" depart="550.50">
        <route edges="-E2 E3 -E8 E6"/>
    </vehicle>
    <vehicle id="veh974" depart="550.89">
        <route edges="-E14 -E8 E7 E10"/>
    </vehicle>
    <vehicle id="veh927" depart="554.27">
        <route edges="-E14 -E8 E6"/>
    </vehicle>
    <vehicle id="veh754" depart="555.99">
        <route edges="-E2 E3 -E8 E6"/>
    </vehicle>
    <vehicle id="veh539" depart="556.73">
        <route edges="-E2 E3 -E8 E6"/>
    </vehicle>
    <vehicle id="veh386" depart="557.53">
        <route edges="-E2 -E1 E0 E7 E10"/>
    </vehicle>
    <vehicle id="veh496" depart="558.39">
        <route edges="-E2 E3 E12 -E11 E9"/>
    </vehicle>
    <vehicle id="veh128" depart="560.00">
        <route edges="-E6 E8 E14"/>
    </vehicle>
    <vehicle id="veh695" depart="560.45">
        <route edges="-E14 -E8 E7 E10"/>
    </vehicle>
    <vehicle id="veh551" depart="562.56">
        <route edges="-E2 E3 E12 E13"/>
    </vehicle>
    <vehicle id="veh653" depart="562.87">
        <route edges="-E14 -E8 E6"/>
    </vehicle>
    <vehicle id="veh237" depart="564.62">
        <route edges="-E4 E0 E7 E11 E13"/>
    </vehicle>
    <vehicle id="veh738" depart="569.60">
        <route edges="-E6 E7 E10"/>
    </vehicle>
    <vehicle id="veh104" depart="569.89">
        <route edges="-E9 E11 E13"/>
    </vehicle>
    <vehicle id="veh95" depart="570.10">
        <route edges="-E6 E7 E10"/>
    </vehicle>
    <vehicle id="veh735" depart="570.69">
        <route edges="-E2 -E1 E0 E7 E10"/>
    </vehicle>
    <vehicle id="veh762" depart="571.56">
        <route edges="-E4 E0 E7 E10"/>
    </vehicle>
    <vehicle id="veh517" depart="572.64">
        <route edges="-E2 -E1 E0 E5 E2"/>
    </vehicle>
    <vehicle id="veh585" depart="577.69">
        <route edges="-E4 E0 E5 -E1 E4"/>
    </vehicle>
    <vehicle id="veh843" depart="580.88">
        <route edges="-E2 E3 E14"/>
    </vehicle>
    <vehicle id="veh1186" depart="582.14">
        <route edges="-E2 E3 E12 -E11 E9"/>
    </vehicle>
    <vehicle id="veh34" depart="585.80">
        <route edges="-E13 -E12 -E8 E7 E11 E13"/>
    </vehicle>
    <vehicle id="veh1108" depart="586.24">
        <route edges="-E6 E5 -E1 E0 E6"/>
    </vehicle>
    <vehicle id="veh292" depart="588.27">
        <route edges="-E4 E0 E7 E11 E13"/>
    </vehicle>
    <vehicle id="veh963" depart="592.00">
        <route edges="-E4 E0 E5 -E1 E4"/>
    </vehicle>
    <vehicle id="veh1040" depart="594.53">
        <route edges="-E14 -E8 E6"/>
    </vehicle>
    <vehicle id="veh828" depart="602.98">
        <route edges="-E14 -E8 -E0 E4"/>
    </vehicle>
    <vehicle id="veh452" depart="603.89">
        <route edges="-E9 E11 E13"/>
    </vehicle>
    <vehicle id="veh195" depart="608.23">
        <route edges="-E2 E3 -E8 E6"/>
    </vehicle>
    <vehicle id="veh1163" depart="609.49">
        <route edges="-E6 E8 E12 E13"/>
    </vehicle>
    <vehicle id="veh614" depart="610.10">
        <route edges="-E10 -E7 E6"/>
    </vehicle>
    <vehicle id="veh1057" depart="612.58">
        <route edges="-E13 -E11 E10"/>
    </vehicle>
    <vehicle id="veh570" depart="615.78">
        <route edges="-E10 -E7 E6"/>
    </vehicle>
    <vehicle id="veh29" depart="616.05">
        <route edges="-E14 E12 E13"/>
    </vehicle>
    <vehicle id="veh656" depart="618.33">
        <route edges="-E6 E8 E12 E13"/>
    </vehicle>
    <vehicle id="veh605" depart="618.38">
        <route edges="-E10 -E7 E5 E2"/>
    </vehicle>
    <vehicle id="veh885" depart="622.39">
        <route edges="-E2 E3 -E8 E6"/>
    </vehicle>
    <vehicle id="veh1078" depart="629.05">
        <route edges="-E14 -E8 E6"/>
    </vehicle>
    <vehicle id="veh1135" depart="631.37">
        <route edges="-E2 E3 E12 E13"/>
    </vehicle>
    <vehicle id="veh807" depart="634.86">
        <route edges="-E4 E0 E7 E11 E13"/>
    </vehicle>
    <vehicle id="veh181" depart="635.92">
        <route edges="-E14 -E8 E5 E3 E14"/>
    </vehicle>
    <vehicle id="veh1185" depart="636.49">
        <route edges="-E13 -E12 -E8 E6"/>
    </vehicle>
    <vehicle id="veh252" depart="638.09">
        <route edges="-E14 -E8 E6"/>
    </vehicle>
    <vehicle id="veh1004" depart="642.28">
        <route edges="-E9 E11 E13"/>
    </vehicle>
    <vehicle id="veh171" depart="643.18">
        <route edges="-E10 E11 E13"/>
    </vehicle>
    <vehicle id="veh1072" depart="644.31">
        <route edges="-E2 E3 -E8 E6"/>
    </vehicle>
    <vehicle id="veh244" depart="651.54">
        <route edges="-E4 E0 E7 E11 E13"/>
    </vehicle>
    <vehicle id="veh530" depart="651.70">
        <route edges="-E13 -E12 -E3 E2"/>
    </vehicle>
    <vehicle id="veh851" depart="653.03">
        <route edges="-E10 E11 -E12 -E8 E7 E10"/>
    </vehicle>
    <vehicle id="veh651" depart="653.97">
        <route edges="-E14 -E8 E5 E3 E14"/>
    </vehicle>
    <vehicle id="veh573" depart="655.52">
        <route edges="-E14 -E8 E6"/>
    </vehicle>
    <vehicle id="veh190" depart="661.78">
        <route edges="-E6 E5 -E1 E0 E6"/>
    </vehicle>
    <vehicle id="veh844" depart="663.55">
        <route edges="-E4 E0 E6"/>
    </vehicle>
    <vehicle id="veh329" depart="668.20">
        <route edges="-E13 -E11 E10"/>
    </vehicle>
    <vehicle id="veh660" depart="672.37">
        <route edges="-E14 E12 E13"/>
    </vehicle>
    <vehicle id="veh606" depart="676.90">
        <route edges="-E14 -E8 E6"/>
    </vehicle>
    <vehicle id="veh384" depart="678.36">
        <route edges="-E2 E3 -E8 E6"/>
    </vehicle>
    <vehicle id="veh404" depart="680.21">
        <route edges="-E4 E0 E6"/>
    </vehicle>
    <vehicle id="veh347" depart="680.96">
        <route edges="-E2 -E1 E0 E7 E10"/>
    </vehicle>
    <vehicle id="veh1026" depart="682.18">
        <route edges="-E2 E3 E14"/>
    </vehicle>
    <vehicle id="veh296" depart="684.31">
        <route edges="-E14 E12 E13"/>
    </vehicle>
    <vehicle id="veh944" depart="690.35">
        <route edges="-E10 E11 E13"/>
    </vehicle>
    <vehicle id="veh552" depart="694.03">
        <route edges="-E14 E12 E13"/>
    </vehicle>
    <vehicle id="veh985" depart="694.63">
        <route edges="-E13 -E12 -E8 E6"/>
    </vehicle>
    <vehicle id="veh574" depart="695.16">
        <route edges="-E2 -E1 E0 E7 E10"/>
    </vehicle>
    <vehicle id="veh150" depart="698.41">
        <route edges="-E13 -E12 -E8 E7 E11 E13"/>
    </vehicle>
    <vehicle id="veh333" depart="702.64">
        <route edges="-E10 -E7 E6"/>
    </vehicle>
    <vehicle id="veh867" depart="703.40">
        <route edges="-E4 E0 E7 E10"/>
    </vehicle>
    <vehicle id="veh302" depart="706.16">
        <route edges="-E10 -E7 E6"/>