<?xml version="1.0" encoding="UTF-8"?>

<!-- generated on 2026-06-13T16:47:52.145982+01:00 by Eclipse SUMO duarouter 1.26.0
<duarouterConfiguration xmlns:xsi="http://www.w3.org/2001/XMLSchema-instance" xsi:noNamespaceSchemaLocation="http://sumo.dlr.de/xsd/duarouterConfiguration.xsd">

    <input>
        <net-file value="C:\Users\rondo\Desktop\Sys auto projeekt\src\City_map_2\city2.net.xml"/>
        <route-files value="C:\Users\rondo\AppData\Local\Temp\city2_hard_train_6.trips.xml"/>
    </input>

    <output>
        <output-file value="C:\Users\rondo\Desktop\Sys auto projeekt\src\City_map_2\city2_hard_train_6.rou.xml"/>
    </output>

    <report>
        <no-warnings value="true"/>
        <ignore-errors value="true"/>
    </report>

    <random_number>
        <seed value="1006"/>
    </random_number>

</duarouterConfiguration>
-->

<routes xmlns:xsi="http://www.w3.org/2001/XMLSchema-instance" xsi:noNamespaceSchemaLocation="http://sumo.dlr.de/xsd/routes_file.xsd">
    <vehicle id="veh314" depart="9.13">
        <route edges="-E9 E11 E13"/>
    </vehicle>
    <vehicle id="veh684" depart="12.06">
        <route edges="-E9 -E7 E6"/>
    </vehicle>
    <vehicle id="veh367" depart="25.33">
        <route edges="-E9 E11 E13"/>
    </vehicle>
    <vehicle id="veh939" depart="26.69">
        <route edges="-E10 -E7 E6"/>
    </vehicle>
    <vehicle id="veh386" depart="36.67">
        <route edges="-E4 E0 E6"/>
    </vehicle>
    <vehicle id="veh437" depart="37.00">
        <route edges="-E2 E3 E12 E13"/>
    </vehicle>
    <vehicle id="veh1554" depart="45.08">
        <route edges="-E9 -E7 E6"/>
    </vehicle>
    <vehicle id="veh1383" depart="65.02">
        <route edges="-E13 -E12 -E8 E7 E11 E13"/>
    </vehicle>
    <vehicle id="veh296" depart="73.57">
        <route edges="-E2 E3 -E8 E6"/>
    </vehicle>
    <vehicle id="veh196" depart="79.42">
        <route edges="-E14 E12 E13"/>
    </vehicle>
    <vehicle id="veh443" depart="92.35">
        <route edges="-E2 E3 -E8 E6"/>
    </vehicle>
    <vehicle id="veh1392" depart="93.44">
        <route edges="-E14 -E8 E7 E10"/>
    </vehicle>
    <vehicle id="veh605" depart="112.94">
        <route edges="-E10 E11 -E12 -E8 E7 E10"/>
    </vehicle>
    <vehicle id="veh955" depart="114.57">
        <route edges="-E2 E3 -E8 E6"/>
    </vehicle>
    <vehicle id="veh906" depart="135.55">
        <route edges="-E13 -E11 E10"/>
    </vehicle>
    <vehicle id="veh582" depart="147.54">
        <route edges="-E10 -E7 E6"/>
    </vehicle>
    <vehicle id="veh67" depart="148.96">
        <route edges="-E2 E3 -E8 E6"/>
    </vehicle>
    <vehicle id="veh802" depart="151.14">
        <route edges="-E13 -E11 E10"/>
    </vehicle>
    <vehicle id="veh1167" depart="152.09">
        <route edges="-E6 E7 E10"/>
    </vehicle>
    <vehicle id="veh600" depart="174.62">
        <route edges="-E14 -E8 E7 E10"/>
    </vehicle>
    <vehicle id="veh273" depart="177.00">
        <route edges="-E9 -E7 -E0 E4"/>
    </vehicle>
    <vehicle id="veh662" depart="188.95">
        <route edges="-E9 E11 E13"/>
    </vehicle>
    <vehicle id="veh568" depart="195.15">
        <route edges="-E13 -E11 E10"/>
    </vehicle>
    <vehicle id="veh1775" depart="196.21">
        <route edges="-E9 -E7 E6"/>
    </vehicle>
    <vehicle id="veh376" depart="196.60">
        <route edges="-E14 -E3 E2"/>
    </vehicle>
    <vehicle id="veh1779" depart="205.02">
        <route edges="-E9 E11 E13"/>
    </vehicle>
    <vehicle id="veh471" depart="210.97">
        <route edges="-E13 -E12 -E8 E7 E11 E13"/>
    </vehicle>
    <vehicle id="veh515" depart="211.25">
        <route edges="-E6 E5 -E1 E0 E6"/>
    </vehicle>
    <vehicle id="veh1343" depart="228.31">
        <route edges="-E14 -E8 E7 E10"/>
    </vehicle>
    <vehicle id="veh16" depart="229.65">
        <route edges="-E10 -E7 E6"/>
    </vehicle>
    <vehicle id="veh1925" depart="245.89">
        <route edges="-E4 E0 E7 E10"/>
    </vehicle>
    <vehicle id="veh342" depart="261.77">
        <route edges="-E4 E0 E7 E9"/>
    </vehicle>
    <vehicle id="veh1945" depart="268.47">
        <route edges="-E6 E7 E10"/>
    </vehicle>
    <vehicle id="veh1176" depart="278.03">
        <route edges="-E9 -E7 E6"/>
    </vehicle>
    <vehicle id="veh915" depart="278.94">
        <route edges="-E6 E5 E2"/>
    </vehicle>
    <vehicle id="veh960" depart="279.56">
        <route edges="-E6 E7 E10"/>
    </vehicle>
    <vehicle id="veh1768" depart="285.21">
        <route edges="-E10 E11 -E12 -E8 E7 E10"/>
    </vehicle>
    <vehicle id="veh1657" depart="288.58">
        <route edges="-E10 -E7 E6"/>
    </vehicle>
    <vehicle id="veh1952" depart="295.50">
        <route edges="-E10 -E7 E6"/>
    </vehicle>
    <vehicle id="veh619" depart="301.42">
        <route edges="-E6 E8 E14"/>
    </vehicle>
    <vehicle id="veh1544" depart="302.96">
        <route edges="-E4 E0 E6"/>
    </vehicle>
    <vehicle id="veh1260" depart="306.82">
        <route edges="-E4 E0 E6"/>
    </vehicle>
    <vehicle id="veh1060" depart="313.88">
        <route edges="-E9 E11 E13"/>
    </vehicle>
    <vehicle id="veh76" depart="314.67">
        <route edges="-E2 E3 E12 E13"/>
    </vehicle>
    <vehicle id="veh1050" depart="314.99">
        <route edges="-E10 -E7 -E0 E4"/>
    </vehicle>
    <vehicle id="veh848" depart="323.85">
        <route edges="-E4 E0 E8 E14"/>
    </vehicle>
    <vehicle id="veh1886" depart="326.83">
        <route edges="-E13 -E11 E10"/>
    </vehicle>
    <vehicle id="veh1197" depart="334.51">
        <route edges="-E4 E0 E6"/>
    </vehicle>
    <vehicle id="veh180" depart="334.68">
        <route edges="-E10 -E7 E6"/>
    </vehicle>
    <vehicle id="veh465" depart="337.11">
        <route edges="-E2 -E1 E0 E7 E10"/>
    </vehicle>
    <vehicle id="veh1778" depart="340.63">
        <route edges="-E9 E11 E13"/>
    </vehicle>
    <vehicle id="veh1039" depart="344.43">
        <route edges="-E13 -E12 -E8 E7 E11 E13"/>
    </vehicle>
    <vehicle id="veh531" depart="360.74">
        <route edges="-E2 -E1 E0 E7 E10"/>
    </vehicle>
    <vehicle id="veh1391" depart="363.61">
        <route edges="-E6 E7 E10"/>
    </vehicle>
    <vehicle id="veh1318" depart="368.65">
        <route edges="-E10 -E7 E6"/>
    </vehicle>
    <vehicle id="veh979" depart="374.45">
        <route edges="-E6 E8 E12 E13"/>
    </vehicle>
    <vehicle id="veh509" depart="381.31">
        <route edges="-E13 -E12 -E8 E7 E11 E13"/>
    </vehicle>
    <vehicle id="veh97" depart="394.21">
        <route edges="-E4 E1 E2"/>
    </vehicle>
    <vehicle id="veh1250" depart="394.67">
        <route edges="-E2 E3 E12 E13"/>
    </vehicle>
    <vehicle id="veh894" depart="399.87">
        <route edges="-E9 E10"/>
    </vehicle>
    <vehicle id="veh1997" depart="423.10">
        <route edges="-E10 E9"/>
    </vehicle>
    <vehicle id="veh1249" depart="432.34">
        <route edges="-E6 E7 E10"/>
    </vehicle>
    <vehicle id="veh573" depart="432.45">
        <route edges="-E6 E5 -E1 E0 E6"/>
    </vehicle>
    <vehicle id="veh1291" depart="436.15">
        <route edges="-E13 -E11 E10"/>
    </vehicle>
    <vehicle id="veh1310" depart="445.16">
        <route edges="-E4 E0 E7 E11 E13"/>
    </vehicle>
    <vehicle id="veh1337" depart="450.80">
        <route edges="-E6 E5 -E1 E0 E6"/>
    </vehicle>
    <vehicle id="veh1970" depart="462.83">
        <route edges="-E6 E7 E10"/>
    </vehicle>
    <vehicle id="veh1379" depart="463.27">
        <route edges="-E2 -E1 E0 E7 E10"/>
    </vehicle>
    <vehicle id="veh1694" depart="465.29">
        <route edges="-E14 E12 E13"/>
    </vehicle>
    <vehicle id="veh1898" depart="466.96">
        <route edges="-E6 E5 -E1 E0 E6"/>
    </vehicle>
    <vehicle id="veh399" depart="467.54">
        <route edges="-E13 -E12 -E8 E6"/>
    </vehicle>
    <vehicle id="veh1069" depart="467.65">
        <route edges="-E13 -E12 -E8 E6"/>
    </vehicle>
    <vehicle id="veh493" depart="467.75">
        <route edges="-E14 -E8 E6"/>
    </vehicle>
    <vehicle id="veh1285" depart="468.37">
        <route edges="-E2 -E1 E0 E7 E10"/>
    </vehicle>
    <vehicle id="veh536" depart="469.71">
        <route edges="-E9 -E7 -E0 E4"/>
    </vehicle>
    <vehicle id="veh719" depart="470.61">
        <route edges="-E9 -E7 E6"/>
    </vehicle>
    <vehicle id="veh5" depart="475.41">
        <route edges="-E6 E7 E10"/>
    </vehicle>
    <vehicle id="veh81" depart="475.78">
        <route edges="-E6 E5 -E1 E0 E6"/>
    </vehicle>
    <vehicle id="veh701" depart="477.56">
        <route edges="-E10 E11 E13"/>
    </vehicle>
    <vehicle id="veh1704" depart="483.33">
        <route edges="-E4 E0 E6"/>
    </vehicle>
    <vehicle id="veh1940" depart="491.38">
        <route edges="-E13 -E12 -E8 E6"/>
    </vehicle>
    <vehicle id="veh69" depart="492.93">
        <route edges="-E9 E11 E13"/>
    </vehicle>
    <vehicle id="veh744" depart="493.08">
        <route edges="-E14 -E8 E7 E10"/>
    </vehicle>
    <vehicle id="veh1271" depart="493.38">
        <route edges="-E10 E11 E13"/>
    </vehicle>
    <vehicle id="veh201" depart="495.45">
        <route edges="-E13 -E12 -E8 E6"/>
    </vehicle>
    <vehicle id="veh1409" depart="499.06">
        <route edges="-E13 -E12 -E8 E7 E11 E13"/>
    </vehicle>
    <vehicle id="veh1599" depart="500.38">
        <route edges="-E2 E3 -E8 E6"/>
    </vehicle>
    <vehicle id="veh1363" depart="500.52">
        <route edges="-E4 E0 E7 E11 E13"/>
    </vehicle>
    <vehicle id="veh1269" depart="500.97">
        <route edges="-E6 E8 E12 E13"/>
    </vehicle>
    <vehicle id="veh14" depart="502.68">
        <route edges="-E10 E11 E13"/>
    </vehicle>
    <vehicle id="veh1641" depart="505.07">
        <route edges="-E14 -E8 E7 E10"/>
    </vehicle>
    <vehicle id="veh1899" depart="507.20">
        <route edges="-E10 E11 E13"/>
    </vehicle>
    <vehicle id="veh528" depart="509.10">
        <route edges="-E14 -E8 -E0 E4"/>
    </vehicle>
    <vehicle id="veh307" depart="509.20">
        <route edges="-E9 -E7 E6"/>
    </vehicle>
    <vehicle id="veh265" depart="515.64">
        <route edges="-E9 E11 E13"/>
    </vehicle>
    <vehicle id="veh1892" depart="515.84">
        <route edges="-E10 -E7 E6"/>
    </vehicle>
    <vehicle id="veh1666" depart="516.17">
        <route edges="-E13 -E12 -E8 E7 E11 E13"/>
    </vehicle>
    <vehicle id="veh665" depart="517.86">
        <route edges="-E10 E11 E13"/>
    </vehicle>
    <vehicle id="veh713" depart="518.53">
        <route edges="-E13 -E11 E9"/>
    </vehicle>
    <vehicle id="veh431" depart="521.31">
        <route edges="-E9 E10"/>
    </vehicle>
    <vehicle id="veh1117" depart="523.89">
        <route edges="-E13 -E11 E10"/>
    </vehicle>
    <vehicle id="veh1868" depart="529.44">
        <route edges="-E4 E0 E7 E11 E13"/>
    </vehicle>
    <vehicle id="veh1819" depart="538.96">
        <route edges="-E4 E0 E7 E10"/>
    </vehicle>
    <vehicle id="veh104" depart="540.38">
        <route edges="-E9 E10"/>
    </vehicle>
    <vehicle id="veh173" depart="544.50">
        <route edges="-E4 E0 E7 E11 E13"/>
    </vehicle>
    <vehicle id="veh1358" depart="544.62">
        <route edges="-E4 E0 E7 E11 E13"/>
    </vehicle>
    <vehicle id="veh390" depart="545.06">
        <route edges="-E9 -E7 E5 E2"/>
    </vehicle>
    <vehicle id="veh953" depart="558.34">
        <route edges="-E4 E0 E7 E10"/>
    </vehicle>
    <vehicle id="veh1445" depart="560.25">
        <route edges="-E6 E8 E14"/>
    </vehicle>
    <vehicle id="veh560" depart="564.63">
        <route edges="-E9 E11 E13"/>
    </vehicle>
    <vehicle id="veh1491" depart="566.64">
        <route edges="-E9 -E7 E6"/>
    </vehicle>
    <vehicle id="veh274" depart="568.87">
        <route edges="-E4 E0 E7 E11 E13"/>
    </vehicle>
    <vehicle id="veh579" depart="572.43">
        <route edges="-E6 E5 -E1 E0 E6"/>
    </vehicle>
    <vehicle id="veh731" depart="572.83">
        <route edges="-E9 E11 E13"/>
    </vehicle>
    <vehicle id="veh1130" depart="578.71">
        <route edges="-E2 E3 -E8 E6"/>
    </vehicle>
    <vehicle id="veh1637" depart="581.00">
        <route edges="-E10 -E7 -E0 E4"/>
    </vehicle>
    <vehicle id="veh489" depart="583.12">
        <route edges="-E6 E5 -E1 E0 E6"/>
    </vehicle>
    <vehicle id="veh927" depart="587.50">
        <route edges="-E14 E12 -E11 E9"/>
    </vehicle>
    <vehicle id="veh1469" depart="587.56">
        <route edges="-E2 E3 E14"/>
    </vehicle>
    <vehicle id="veh1166" depart="587.65">
        <route edges="-E14 -E8 -E0 E4"/>
    </vehicle>
    <vehicle id="veh253" depart="590.62">
        <route edges="-E14 E12 E13"/>
    </vehicle>
    <vehicle id="veh872" depart="591.71">
        <route edges="-E9 E11 E13"/>
    </vehicle>
    <vehicle id="veh448" depart="592.56">
        <route edges="-E4 E0 E7 E11 E13"/>
    </vehicle>
    <vehicle id="veh1430" depart="595.49">
        <route edges="-E14 -E8 E6"/>
    </vehicle>
    <vehicle id="veh411" depart="597.86">
        <route edges="-E9 E11 -E12 -E8 E7 E9"/>
    </vehicle>
    <vehicle id="veh66" depart="602.03">
        <route edges="-E2 E3 -E8 E6"/>
    </vehicle>
    <vehicle id="veh1571" depart="605.18">
        <route edges="-E9 -E7 E6"/>
    </vehicle>
    <vehicle id="veh970" depart="605.33">
        <route edges="-E6 E7 E10"/>
    </vehicle>
    <vehicle id="veh486" depart="605.60">
        <route edges="-E4 E0 E7 E11 E13"/>
    </vehicle>
    <vehicle id="veh1406" depart="606.28">
        <route edges="-E13 -E12 -E8 E7 E11 E13"/>
    </vehicle>
    <vehicle id="veh1975" depart="608.18">
        <route edges="-E9 E10"/>
    </vehicle>
    <vehicle id="veh125" depart="608.92">
        <route edges="-E13 -E11 E10"/>
    </vehicle>
    <vehicle id="veh1237" depart="609.43">
        <route edges="-E2 -E1 E0 E7 E10"/>
    </vehicle>
    <vehicle id="veh383" depart="615.42">
        <route edges="-E10 E11 -E12 -E8 E7 E10"/>
    </vehicle>
    <vehicle id="veh1159" depart="615.57">
        <route edges="-E6 E7 E10"/>
    </vehicle>
    <vehicle id="veh1333" depart="617.31">
        <route edges="-E2 -E1 E4"/>
    </vehicle>
    <vehicle id="veh726" depart="617.57">
        <route edges="-E9 E10"/>
    </vehicle>
    <vehicle id="veh1108" depart="620.24">
        <route edges="-E4 E0 E6"/>
    </vehicle>
    <vehicle id="veh177" depart="630.19">
        <route edges="-E4 E0 E8 E14"/>
    </vehicle>
    <vehicle id="veh419" depart="630.20">
        <route edges="-E2 E3 E14"/>
    </vehicle>
    <vehicle id="veh1537" depart="639.63">
        <route edges="-E14 -E8 E7 E10"/>
    </vehicle>
    <vehicle id="veh1180" depart="639.74">
        <route edges="-E10 E11 -E12 -E8 E7 E10"/>
    </vehicle>
    <vehicle id="veh987" depart="642.06">
        <route edges="-E10 E11 E13"/>
    </vehicle>
    <vehicle id="veh524" depart="642.32">
        <route edges="-E2 -E1 E0 E7 E10"/>
    </vehicle>
    <vehicle id="veh918" depart="645.15">
        <route edges="-E14 -E8 E7 E10"/>
    </vehicle>
    <vehicle id="veh1170" depart="653.47">
        <route edges="-E14 E12 E13"/>
    </vehicle>
    <vehicle id="veh193" depart="657.36">
        <route edges="-E2 E3 E14"/>
    </vehicle>
    <vehicle id="veh1932" depart="657.69">
        <route edges="-E4 E0 E8 E14"/>
    </vehicle>
    <vehicle id="veh1565" depart="663.10">
        <route edges="-E2 E3 E12 E13"/>
    </vehicle>
    <vehicle id="veh1094" depart="667.36">
        <route edges="-E9 -E7 E6"/>
    </vehicle>
    <vehicle id="veh1815" depart="669.84">
        <route edges="-E13 -E12 -E8 E7 E11 E13"/>
    </vehicle>
    <vehicle id="veh65" depart="670.40">
        <route edges="-E6 E7 E10"/>
    </vehicle>
    <vehicle id="veh1056" depart="673.02">
        <route edges="-E14 -E8 E7 E10"/>
    </vehicle>
    <vehicle id="veh338" depart="673.09">
        <route edges="-E4 E0 E6"/>
    </vehicle>
    <vehicle id="veh1609" depart="677.48">
        <route edges="-E9 E11 E13"/>
    </vehicle>
    <vehicle id="veh935" depart="678.04">
        <route edges="-E13 -E12 -E8 E7 E11 E13"/>
    </vehicle>
    <vehicle id="veh243" depart="678.51">
        <route edges="-E2 E3 E12 E13"/>
    </vehicle>
    <vehicle id="veh1767" depart="679.57">
        <route edges="-E6 -E0 E4"/>
    </vehicle>
    <vehicle id="veh148" depart="680.72">
        <route edges="-E10 E9"/>
    </vehicle>
    <vehicle id="veh1052" depart="682.29">
        <route edges="-E6 E5 -E1 E0 E6"/>
    </vehicle>
    <vehicle id="veh881" depart="682.97">
        <route edges="-E13 -E12 -E8 E7 E11 E13"/>
    </vehicle>
    <vehicle id="veh1288" depart="685.40">
        <route edges="-E14 -E8 E7 E10"/>
    </vehicle>
    <vehicle id="veh1671" depart="686.07">
        <route edges="-E2 -E1 E0 E7 E10"/>
    </vehicle>
    <vehicle id="veh858" depart="686.18">
        <route edges="-E10 -E7 E6"/>
    </vehicle>
    <vehicle id="veh564" depart="686.91">
        <route edges="-E4 E0 E7 E11 E13"/>
    </vehicle>
    <vehicle id="veh946" depart="688.42">
        <route edges="-E13 -E12 -E8 E6"/>
    </vehicle>
    <vehicle id="veh109" depart="689.13">
        <route edges="-E2 E3 E12 E13"/>
    </vehicle>
    <vehicle id="veh718" depart="692.88">
        <route edges="-E4 E0 E7 E11 E13"/>
    </vehicle>
    <vehicle id="veh1690" depart="693.14">
        <route edges="-E2 E3 -E8 E6"/>
    </vehicle>
    <vehicle id="veh975" depart="696.78">
        <route edges="-E6 E7 E10"/>
    </vehicle>
    <vehicle id="veh537" depart="698.15">
        <route edges="-E10 E9"/>
    </vehicle>
    <vehicle id="veh1169" depart="700.63">
        <route edges="-E6 E8 E12 E13"/>
    </vehicle>
    <vehicle id="veh1097" depart="704.38">
        <route edges="-E9 E11 E13"/>
    </vehicle>
    <vehicle id="veh78" depart="704.70">
        <route edges="-E6 E7 E10"/>
    </vehicle>
    <vehicle id="veh24" depart="706.33">
        <route edges="-E4 E0 E6"/>
    </vehicle>
    <vehicle id="veh189" depart="708.28">
        <route edges="-E4 E0 E7 E10"/>
    </vehicle>
    <vehicle id="veh1104" depart="708.86">
        <route edges="-E6 E5 -E1 E0 E6"/>
    </vehicle>
    <vehicle id="veh1376" depart="709.75">
        <route edges="-E13 -E11 E10"/>
    </vehicle>
    <vehicle id="veh1946" depart="710.19">
        <route edges="-E14 -E8 E6"/>
    </vehicle>
    <vehicle id="veh1456" depart="710.22">
        <route edges="-E10 E11 -E12 -E8 E7 E10"/>
    </vehicle>
    <vehicle id="veh1797" depart="711.72">
        <route edges="-E13 -E12 -E8 E6"/>
    </vehicle>
    <vehicle id="veh1781" depart="723.80">
        <route edges="-E9 E10"/>
    </vehicle>
    <vehicle id="veh248" depart="724.52">
        <route edges="-E6 E8 E12 E13"/>
    </vehicle>
    <vehicle id="veh207" depart="724.84">
        <route edges="-E10 E11 -E12 -E8 E7 E10"/>
    </vehicle>
    <vehicle id="veh160" depart="728.29">
        <route edges="-E10 -E7 E5 E2"/>
    </vehicle>
    <vehicle id="veh1355" depart="729.35">
        <route edges="-E10 E11 -E12 -E8 E7 E10"/>
    </vehicle>
    <vehicle id="veh1873" depart="729.49">
        <route edges="-E2 -E1 E0 E5 E2"/>
    </vehicle>
    <vehicle id="veh1134" depart="729.73">
        <route edges="-E14 -E8 E5 E3 E14"/>
    </vehicle>
    <vehicle id="veh396" depart="730.46">
        <route edges="-E10 -E7 E6"/>
    </vehicle>
    <vehicle id="veh1717" depart="731.63">
        <route edges="-E2 -E1 E0 E7 E10"/>
    </vehicle>
    <vehicle id="veh1251" depart="732.91">
        <route edges="-E13 -E12 -E8 E7 E11 E13"/>
    </vehicle>
    <vehicle id="veh805" depart="733.98">
        <route edges="-E6 E7 E10"/>
    </vehicle>
    <vehicle id="veh599" depart="735.97">
        <route edges="-E9 -E7 E6"/>
    </vehicle>
    <vehicle id="veh831" depart="738.04">
        <route edges="-E6 E7 E10"/>
    </vehicle>
    <vehicle id="veh497" depart="744.30">
        <route edges="-E14 E12 E13"/>
    </vehicle>
    <vehicle id="veh39" depart="744.69">
        <route edges="-E2 -E1 E0 E7 E10"/>
    </vehicle>
    <vehicle id="veh1500" depart="748.23">
        <route edges="-E9 E10"/>
    </vehicle>
    <vehicle id="veh95" depart="748.58">
        <route edges="-E13 -E12 -E3 -E1 E4"/>
    </vehicle>
    <vehicle id="veh112" depart="750.35">
        <route edges="-E2 E3 E12 E13"/>
    </vehicle>
    <vehicle id="veh736" depart="750.92">
        <route edges="-E14 -E8 E7 E10"/>
    </vehicle>
    <vehicle id="veh743" depart="751.17">
        <route edges="-E13 -E12 -E8 E7 E11 E13"/>
    </vehicle>
    <vehicle id="veh798" depart="752.38">
        <route edges="-E6 E5 -E1 E0 E6"/>
    </vehicle>
    <vehicle id="veh1805" depart="752.50">
        <route edges="-E14 -E8 E6"/>
    </vehicle>
    <vehicle id="veh745" depart="756.35">
        <route edges="-E14 -E3 E2"/>
    </vehicle>
    <vehicle id="veh1519" depart="758.67">
        <route edges="-E14 -E8 E7 E10"/>
    </vehicle>
    <vehicle id="veh747" depart="759.18">
        <route edges="-E6 E7 E10"/>
    </vehicle>
    <vehicle id="veh1321" depart="759.54">
        <route edges="-E14 E12 E13"/>
    </vehicle>
    <vehicle id="veh928" depart="764.14">
        <route edges="-E13 -E11 E10"/>
    </vehicle>
    <vehicle id="veh404" depart="764.86">
        <route edges="-E4 E0 E6"/>
    </vehicle>
    <vehicle id="veh469" depart="765.83">
        <route edges="-E10 -E7 E6"/>
    </vehicle>
    <vehicle id="veh116" depart="767.44">
        <route edges="-E6 E8 E12 E13"/>
    </vehicle>
    <vehicle id="veh876" depart="767.95">
        <route edges="-E2 E3 -E8 E6"/>
    </vehicle>
    <vehicle id="veh656" depart="769.85">
        <route edges="-E13 -E12 -E8 E6"/>
    </vehicle>
    <vehicle id="veh913" depart="771.94">
        <route edges="-E2 E3 -E8 E6"/>
    </vehicle>
    <vehicle id="veh1427" depart="772.81">
        <route edges="-E9 E11 E13"/>
    </vehicle>
    <vehicle id="veh86" depart="772.93">
        <route edges="-E13 -E12 -E8 E6"/>
    </vehicle>
    <vehicle id="veh945" depart="775.83">
        <route edges="-E9 E10"/>
    </vehicle>
    <vehicle id="veh1209" depart="776.53">
        <route edges="-E14 -E8 E6"/>
    </vehicle>
    <vehicle id="veh1780" depart="780.18">
        <route edges="-E4 E0 E7 E10"/>
    </vehicle>
    <vehicle id="veh1871" depart="781.06">
        <route edges="-E9 E10"/>
    </vehicle>
    <vehicle id="veh1901" depart="781.78">
        <route edges="-E4 E0 E7 E10"/>
    </vehicle>
    <vehicle id="veh832" depart="784.01">
        <route edges="-E10 E11 E13"/>
    </vehicle>
    <vehicle id="veh1530" depart="787.53">
        <route edges="-E4 E0 E6"/>
    </vehicle>
    <vehicle id="veh1904" depart="787.71">
        <route edges="-E9 E10"/>
    </vehicle>
    <vehicle id="veh1800" depart="788.24">
        <route edges="-E4 E0 E7 E9"/>
    </vehicle>
    <vehicle id="veh1431" depart="793.21">
        <route edges="-E13 -E12 -E8 E6"/>
    </vehicle>
    <vehicle id="veh1716" depart="793.29">
        <route edges="-E2 E3 -E8 E6"/>
    </vehicle>
    <vehicle id="veh815" depart="795.97">
        <route edges="-E10 E11 E13"/>
    </vehicle>
    <vehicle id="veh159" depart="796.94">
        <route edges="-E10 E11 -E12 -E8 E7 E10"/>
    </vehicle>
    <vehicle id="veh445" depart="797.08">
        <route edges="-E6 E7 E10"/>
    </vehicle>
    <vehicle id="veh289" depart="797.50">
        <route edges="-E13 -E12 -E8 E6"/>
    </vehicle>
    <vehicle id="veh1622" depart="799.98">
        <route edges="-E14 -E8 E6"/>
    </vehicle>
    <vehicle id="veh1883" depart="800.29">
        <route edges="-E14 -E8 E6"/>
    </vehicle>
    <vehicle id="veh58" depart="801.06">
        <route edges="-E13 -E11 E10"/>
    </vehicle>
    <vehicle id="veh1876" depart="801.36">
        <route edges="-E10 E11 E13"/>
    </vehicle>
    <vehicle id="veh1009" depart="801.77">
        <route edges="-E13 -E11 E9"/>
    </vehicle>
    <vehicle id="veh92" depart="802.60">
        <route edges="-E10 E11 E13"/>
    </vehicle>
    <vehicle id="veh319" depart="803.69">
        <route edges="-E10 E11 -E12 -E8 E7 E10"/>
    </vehicle>
    <vehicle id="veh559" depart="804.27">
        <route edges="-E9 E11 E13"/>
    </vehicle>
    <vehicle id="veh10" depart="804.77">
        <route edges="-E6 E7 E10"/>
    </vehicle>
    <vehicle id="veh964" depart="806.11">
        <route edges="-E6 E5 -E1 E0 E6"/>
    </vehicle>
    <vehicle id="veh1592" depart="808.29">
        <route edges="-E10 E11 E13"/>
    </vehicle>
    <vehicle id="veh746" depart="811.42">
        <route edges="-E10 -E7 E5 E2"/>
    </vehicle>
    <vehicle id="veh1068" depart="811.62">
        <route edges="-E14 E12 E13"/>
    </vehicle>
    <vehicle id="veh1223" depart="813.96">
        <route edges="-E10 E11 -E12 -E8 E7 E10"/>
    </vehicle>
    <vehicle id="veh1810" depart="817.91">
        <route edges="-E4 E0 E7 E10"/>
    </vehicle>
    <vehicle id="veh187" depart="819.18">
        <route edges="-E9 E11 E13"/>
    </vehicle>
    <vehicle id="veh1568" depart="820.71">
        <route edges="-E10 -E7 E6"/>
    </vehicle>
    <vehicle id="veh1833" depart="820.99">
        <route edges="-E14 -E8 E7 E10"/>
    </vehicle>
    <vehicle id="veh1617" depart="821.57">
        <route edges="-E14 -E3 E2"/>
    </vehicle>
    <vehicle id="veh1440" depart="822.50">
        <route edges="-E13 -E12 -E8 E7 E11 E13"/>
    </vehicle>
    <vehicle id="veh1351" depart="823.58">
        <route edges="-E9 E11 -E12 E14"/>
    </vehicle>
    <vehicle id="veh46" depart="828.99">
        <route edges="-E2 E3 E12 E13"/>
    </vehicle>
    <vehicle id="veh1699" depart="829.45">
        <route edges="-E6 E8 E14"/>
    </vehicle>
    <vehicle id="veh856" depart="829.94">
        <route edges="-E14 E12 E13"/>
    </vehicle>
    <vehicle id="veh348" depart="835.81">
        <route edges="-E6 E7 E10"/>
    </vehicle>
    <vehicle id="veh586" depart="835.88">
        <route edges="-E9 E11 E13"/>
    </vehicle>
    <vehicle id="veh1462" depart="837.38">
        <route edges="-E4 E0 E6"/>
    </vehicle>
    <vehicle id="veh269" depart="839.97">
        <route edges="-E9 -E7 E6"/>
    </vehicle>
    <vehicle id="veh1143" depart="840.16">
        <route edges="-E9 E10"/>
    </vehicle>
    <vehicle id="veh1380" depart="845.45">
        <route edges="-E6 E5 -E1 E0 E6"/>
    </vehicle>
    <vehicle id="veh1222" depart="849.72">
        <route edges="-E13 -E12 E14"/>
    </vehicle>
    <vehicle id="veh908" depart="851.90">
        <route edges="-E4 E0 E7 E10"/>
    </vehicle>
    <vehicle id="veh349" depart="852.92">
        <route edges="-E4 E0 E7 E11 E13"/>
    </vehicle>
    <vehicle id="veh1583" depart="856.64">
        <route edges="-E4 E0 E7 E10"/>
    </vehicle>
    <vehicle id="veh476" depart="859.13">
        <route edges="-E6 E5 -E1 E0 E6"/>
    </vehicle>
    <vehicle id="veh26" depart="859.31">
        <route edges="-E10 E9"/>
    </vehicle>
    <vehicle id="veh1479" depart="859.75">
        <route edges="-E10 E11 -E12 -E8 E7 E10"/>
    </vehicle>
    <vehicle id="veh1212" depart="860.78">
        <route edges="-E4 E0 E6"/>
    </vehicle>
    <vehicle id="veh555" depart="862.16">
        <route edges="-E9 E10"/>
    </vehicle>
    <vehicle id="veh1320" depart="862.82">
        <route edges="-E9 E11 E13"/>
    </vehicle>
    <vehicle id="veh580" depart="863.38">
        <route edges="-E13 -E12 -E8 E7 E11 E13"/>
    </vehicle>
    <vehicle id="veh996" depart="866.04">
        <route edges="-E10 E11 -E12 -E8 E7 E10"/>
    </vehicle>
    <vehicle id="veh147" depart="866.17">
        <route edges="-E14 -E8 E6"/>
    </vehicle>
    <vehicle id="veh1038" depart="867.57">
        <route edges="-E6 E8 E14"/>
    </vehicle>
    <vehicle id="veh1367" depart="869.12">
        <route edges="-E6 E5 E2"/>
    </vehicle>
    <vehicle id="veh137" depart="870.26">
        <route edges="-E4 E0 E7 E10"/>
    </vehicle>
    <vehicle id="veh1863" depart="875.94">
        <route edges="-E13 -E12 -E8 E6"/>
    </vehicle>
    <vehicle id="veh1517" depart="877.42">
        <route edges="-E9 E11 -E12 E14"/>
    </vehicle>
    <vehicle id="veh1523" depart="880.15">
        <route edges="-E4 E0 E7 E10"/>
    </vehicle>
    <vehicle id="veh134" depart="883.43">
        <route edges="-E2 E3 -E8 E6"/>
    </vehicle>
    <vehicle id="veh200" depart="883.74">
        <route edges="-E10 E11 E13"/>
    </vehicle>
    <vehicle id="veh563" depart="884.37">
        <route edges="-E4 E0 E8 E14"/>
    </vehicle>
    <vehicle id="veh1340" depart="885.84">
        <route edges="-E2 E3 -E8 E6"/>
    </vehicle>
    <vehicle id="veh521" depart="886.70">
        <route edges="-E6 E8 E14"/>
    </vehicle>
    <vehicle id="veh1731" depart="887.29">
        <route edges="-E13 -E11 E10"/>
    </vehicle>
    <vehicle id="veh1549" depart="888.93">
        <route edges="-E14 -E8 -E0 E4"/>
    </vehicle>
    <vehicle id="veh290" depart="890.16">
        <route edges="-E4 E0 E7 E10"/>
    </vehicle>
    <vehicle id="veh1566" depart="890.65">
        <route edges="-E13 -E12 -E8 E6"/>
    </vehicle>
    <vehicle id="veh1618" depart="891.89">
        <route edges="-E9 E10"/>
    </vehicle>
    <vehicle id="veh161" depart="892.67">
        <route edges="-E6 E8 E12 E13"/>
    </vehicle>
    <vehicle id="veh22" depart="894.76">
        <route edges="-E10 E11 E13"/>
    </vehicle>
    <vehicle id="veh165" depart="895.04">
        <route edges="-E2 E3 E12 E13"/>
    </vehicle>
    <vehicle id="veh219" depart="896.26">
        <route edges="-E2 E3 -E8 E6"/>
    </vehicle>
    <vehicle id="veh1673" depart="898.75">
        <route edges="-E10 E11 E13"/>
    </vehicle>
    <vehicle id="veh288" depart="899.34">
        <route edges="-E13 -E12 -E8 E6"/>
    </vehicle>
    <vehicle id="veh3" depart="903.28">
        <route edges="-E2 E3 E14"/>
    </vehicle>
    <vehicle id="veh1563" depart="904.75">
        <route edges="-E4 E0 E8 E14"/>
    </vehicle>
    <vehicle id="veh1429" depart="905.48">
        <route edges="-E4 E0 E7 E11 E13"/>
    </vehicle>
    <vehicle id="veh375" depart="909.08">