<routes>
    <trip id="veh1094" depart="11.05" from="-E6" to="E13"/>
    <trip id="veh1331" depart="35.89" from="-E10" to="E10"/>
    <trip id="veh1905" depart="41.66" from="-E2" to="E6"/>
    <trip id="veh1757" depart="50.48" from="-E2" to="E6"/>
    <trip id="veh1286" depart="78.87" from="-E4" to="E4"/>
    <trip id="veh1991" depart="96.17" from="-E13" to="E6"/>
    <trip id="veh1808" depart="123.78" from="-E9" to="E10"/>
    <trip id="veh1271" depart="131.49" from="-E2" to="E13"/>
    <trip id="veh651" depart="133.98" from="-E4" to="E2"/>
    <trip id="veh62" depart="143.99" from="-E9" to="E13"/>
    <trip id="veh718" depart="151.33" from="-E2" to="E13"/>
    <trip id="veh1837" depart="156.04" from="-E14" to="E13"/>
    <trip id="veh1913" depart="156.93" from="-E14" to="E13"/>
    <trip id="veh1653" depart="158.02" from="-E2" to="E6"/>
    <trip id="veh1469" depart="160.17" from="-E9" to="E10"/>
    <trip id="veh18" depart="183.59" from="-E6" to="E10"/>
    <trip id="veh114" depart="186.27" from="-E6" to="E10"/>
    <trip id="veh1497" depart="190.65" from="-E2" to="E14"/>
    <trip id="veh1470" depart="192.73" from="-E6" to="E6"/>
    <trip id="veh1634" depart="194.58" from="-E10" to="E13"/>
    <trip id="veh957" depart="200.38" from="-E4" to="E2"/>
    <trip id="veh283" depart="200.88" from="-E10" to="E6"/>
    <trip id="veh919" depart="206.38" from="-E9" to="E13"/>
    <trip id="veh1325" depart="208.14" from="-E14" to="E10"/>
    <trip id="veh517" depart="211.75" from="-E6" to="E6"/>
    <trip id="veh1439" depart="218.62" from="-E14" to="E13"/>
    <trip id="veh749" depart="223.24" from="-E4" to="E6"/>
    <trip id="veh1917" depart="234.83" from="-E13" to="E6"/>
    <trip id="veh786" depart="239.08" from="-E9" to="E13"/>
    <trip id="veh905" depart="242.29" from="-E10" to="E10"/>
    <trip id="veh632" depart="249.50" from="-E4" to="E10"/>
    <trip id="veh679" depart="255.09" from="-E14" to="E6"/>
    <trip id="veh556" depart="277.53" from="-E10" to="E13"/>
    <trip id="veh836" depart="280.01" from="-E6" to="E9"/>
    <trip id="veh1434" depart="291.03" from="-E4" to="E13"/>
    <trip id="veh1224" depart="291.37" from="-E10" to="E6"/>
    <trip id="veh454" depart="291.58" from="-E14" to="E4"/>
    <trip id="veh1520" depart="293.28" from="-E2" to="E2"/>
    <trip id="veh494" depart="297.57" from="-E4" to="E6"/>
    <trip id="veh1730" depart="301.15" from="-E9" to="E13"/>
    <trip id="veh970" depart="324.02" from="-E14" to="E14"/>
    <trip id="veh149" depart="324.41" from="-E9" to="E13"/>
    <trip id="veh1464" depart="326.94" from="-E10" to="E6"/>
    <trip id="veh405" depart="329.93" from="-E6" to="E6"/>
    <trip id="veh120" depart="337.25" from="-E4" to="E10"/>
    <trip id="veh1613" depart="350.30" from="-E10" to="E10"/>
    <trip id="veh1967" depart="355.35" from="-E4" to="E13"/>
    <trip id="veh1535" depart="359.62" from="-E4" to="E10"/>
    <trip id="veh1492" depart="363.33" from="-E14" to="E13"/>
    <trip id="veh1844" depart="364.23" from="-E13" to="E13"/>
    <trip id="veh1788" depart="365.33" from="-E6" to="E10"/>
    <trip id="veh1064" depart="373.41" from="-E9" to="E13"/>
    <trip id="veh1854" depart="379.15" from="-E9" to="E6"/>
    <trip id="veh1511" depart="382.92" from="-E9" to="E10"/>
    <trip id="veh1188" depart="383.28" from="-E9" to="E4"/>
    <trip id="veh1056" depart="385.09" from="-E13" to="E10"/>
    <trip id="veh275" depart="386.85" from="-E2" to="E6"/>
    <trip id="veh491" depart="390.89" from="-E10" to="E10"/>
    <trip id="veh1071" depart="397.46" from="-E6" to="E9"/>
    <trip id="veh1641" depart="414.09" from="-E13" to="E6"/>
    <trip id="veh853" depart="415.17" from="-E6" to="E10"/>
    <trip id="veh1333" depart="419.29" from="-E2" to="E13"/>
    <trip id="veh1921" depart="422.72" from="-E2" to="E13"/>
    <trip id="veh1736" depart="425.08" from="-E9" to="E10"/>
    <trip id="veh902" depart="427.37" from="-E4" to="E9"/>
    <trip id="veh1697" depart="429.01" from="-E4" to="E13"/>
    <trip id="veh1358" depart="432.25" from="-E4" to="E6"/>
    <trip id="veh309" depart="439.23" from="-E2" to="E10"/>
    <trip id="veh1215" depart="444.30" from="-E13" to="E6"/>
    <trip id="veh482" depart="444.83" from="-E14" to="E13"/>
    <trip id="veh255" depart="447.14" from="-E2" to="E9"/>
    <trip id="veh301" depart="449.74" from="-E6" to="E6"/>
    <trip id="veh218" depart="450.21" from="-E9" to="E6"/>
    <trip id="veh1134" depart="450.36" from="-E14" to="E6"/>
    <trip id="veh1149" depart="454.81" from="-E14" to="E6"/>
    <trip id="veh1443" depart="455.19" from="-E14" to="E10"/>
    <trip id="veh108" depart="455.60" from="-E14" to="E10"/>
    <trip id="veh816" depart="457.78" from="-E13" to="E6"/>
    <trip id="veh900" depart="461.67" from="-E13" to="E10"/>
    <trip id="veh1707" depart="461.79" from="-E6" to="E6"/>
    <trip id="veh343" depart="466.33" from="-E4" to="E6"/>
    <trip id="veh1670" depart="470.88" from="-E4" to="E13"/>
    <trip id="veh1376" depart="472.81" from="-E10" to="E6"/>
    <trip id="veh1292" depart="473.53" from="-E2" to="E4"/>
    <trip id="veh1929" depart="475.06" from="-E9" to="E10"/>
    <trip id="veh526" depart="480.14" from="-E4" to="E10"/>
    <trip id="veh1032" depart="481.71" from="-E13" to="E13"/>
    <trip id="veh1676" depart="482.53" from="-E6" to="E6"/>
    <trip id="veh366" depart="486.19" from="-E14" to="E6"/>
    <trip id="veh384" depart="486.91" from="-E2" to="E13"/>
    <trip id="veh228" depart="487.22" from="-E14" to="E13"/>
    <trip id="veh982" depart="488.72" from="-E9" to="E6"/>
    <trip id="veh1992" depart="496.69" from="-E13" to="E2"/>
    <trip id="veh158" depart="496.70" from="-E14" to="E9"/>
    <trip id="veh1210" depart="506.33" from="-E9" to="E6"/>
    <trip id="veh1577" depart="508.45" from="-E4" to="E6"/>
    <trip id="veh408" depart="511.51" from="-E6" to="E4"/>
    <trip id="veh1451" depart="519.05" from="-E13" to="E6"/>
    <trip id="veh302" depart="519.35" from="-E14" to="E13"/>
    <trip id="veh1392" depart="520.66" from="-E9" to="E6"/>
    <trip id="veh1079" depart="522.06" from="-E14" to="E13"/>
    <trip id="veh64" depart="527.12" from="-E13" to="E10"/>
    <trip id="veh1835" depart="535.66" from="-E9" to="E4"/>
    <trip id="veh692" depart="544.95" from="-E10" to="E10"/>
    <trip id="veh877" depart="548.29" from="-E10" to="E9"/>
    <trip id="veh263" depart="548.97" from="-E2" to="E6"/>
    <trip id="veh349" depart="549.49" from="-E13" to="E9"/>
    <trip id="veh551" depart="550.53" from="-E6" to="E14"/>
    <trip id="veh1287" depart="551.34" from="-E14" to="E10"/>
    <trip id="veh653" depart="554.62" from="-E6" to="E10"/>
    <trip id="veh758" depart="557.02" from="-E6" to="E13"/>
    <trip id="veh310" depart="557.05" from="-E14" to="E10"/>
    <trip id="veh288" depart="564.19" from="-E6" to="E10"/>
    <trip id="veh435" depart="577.96" from="-E10" to="E6"/>
    <trip id="veh153" depart="580.72" from="-E9" to="E6"/>
    <trip id="veh938" depart="585.21" from="-E4" to="E10"/>
    <trip id="veh1387" depart="586.82" from="-E9" to="E6"/>
    <trip id="veh1553" depart="588.24" from="-E6" to="E6"/>
    <trip id="veh287" depart="601.63" from="-E6" to="E6"/>
    <trip id="veh379" depart="602.81" from="-E13" to="E14"/>
    <trip id="veh1688" depart="604.16" from="-E6" to="E6"/>
    <trip id="veh779" depart="605.17" from="-E6" to="E6"/>
    <trip id="veh564" depart="606.37" from="-E10" to="E13"/>
    <trip id="veh1001" depart="617.40" from="-E14" to="E6"/>
    <trip id="veh135" depart="617.50" from="-E2" to="E10"/>
    <trip id="veh1845" depart="618.12" from="-E6" to="E6"/>
    <trip id="veh1423" depart="622.01" from="-E9" to="E10"/>
    <trip id="veh1545" depart="626.74" from="-E4" to="E13"/>
    <trip id="veh827" depart="628.09" from="-E13" to="E10"/>
    <trip id="veh954" depart="635.27" from="-E6" to="E13"/>
    <trip id="veh1957" depart="635.86" from="-E9" to="E13"/>
    <trip id="veh489" depart="636.79" from="-E4" to="E10"/>
    <trip id="veh1237" depart="639.65" from="-E2" to="E10"/>
    <trip id="veh942" depart="645.84" from="-E6" to="E13"/>
    <trip id="veh1503" depart="647.78" from="-E13" to="E13"/>
    <trip id="veh129" depart="650.80" from="-E2" to="E13"/>
    <trip id="veh915" depart="651.91" from="-E4" to="E10"/>
    <trip id="veh540" depart="652.63" from="-E9" to="E4"/>
    <trip id="veh371" depart="655.15" from="-E9" to="E10"/>
    <trip id="veh1569" depart="662.82" from="-E9" to="E6"/>
    <trip id="veh601" depart="663.68" from="-E2" to="E6"/>
    <trip id="veh1729" depart="666.51" from="-E2" to="E9"/>
    <trip id="veh1422" depart="668.85" from="-E2" to="E13"/>
    <trip id="veh923" depart="669.65" from="-E4" to="E13"/>
    <trip id="veh1053" depart="670.15" from="-E2" to="E10"/>
    <trip id="veh439" depart="673.34" from="-E9" to="E4"/>
    <trip id="veh1955" depart="675.29" from="-E13" to="E10"/>
    <trip id="veh1706" depart="677.18" from="-E9" to="E13"/>
    <trip id="veh1138" depart="677.21" from="-E6" to="E13"/>
    <trip id="veh216" depart="683.21" from="-E6" to="E13"/>
    <trip id="veh1914" depart="686.19" from="-E2" to="E10"/>
    <trip id="veh397" depart="686.23" from="-E6" to="E10"/>
    <trip id="veh1402" depart="687.26" from="-E13" to="E6"/>
    <trip id="veh1076" depart="688.90" from="-E9" to="E13"/>
    <trip id="veh82" depart="690.93" from="-E4" to="E9"/>
    <trip id="veh1098" depart="692.67" from="-E6" to="E13"/>
    <trip id="veh452" depart="692.85" from="-E10" to="E10"/>
    <trip id="veh1385" depart="697.48" from="-E9" to="E6"/>
    <trip id="veh1173" depart="699.44" from="-E4" to="E13"/>
    <trip id="veh56" depart="699.88" from="-E2" to="E10"/>
    <trip id="veh1268" depart="700.33" from="-E9" to="E6"/>
    <trip id="veh406" depart="704.38" from="-E14" to="E13"/>
    <trip id="veh1336" depart="706.93" from="-E2" to="E10"/>
    <trip id="veh1744" depart="708.58" from="-E10" to="E13"/>
    <trip id="veh374" depart="710.38" from="-E9" to="E10"/>
    <trip id="veh1615" depart="712.22" from="-E4" to="E6"/>
    <trip id="veh1351" depart="713.15" from="-E6" to="E13"/>
    <trip id="veh217" depart="713.19" from="-E2" to="E6"/>
    <trip id="veh709" depart="715.40" from="-E14" to="E13"/>
    <trip id="veh1147" depart="718.98" from="-E4" to="E14"/>
    <trip id="veh1442" depart="719.43" from="-E10" to="E9"/>
    <trip id="veh337" depart="719.50" from="-E13" to="E10"/>
    <trip id="veh1881" depart="720.00" from="-E6" to="E10"/>
    <trip id="veh220" depart="721.34" from="-E14" to="E10"/>
    <trip id="veh1617" depart="722.18" from="-E10" to="E4"/>
    <trip id="veh1747" depart="724.25" from="-E14" to="E10"/>
    <trip id="veh1395" depart="725.52" from="-E4" to="E13"/>
    <trip id="veh1975" depart="726.36" from="-E14" to="E6"/>
    <trip id="veh1082" depart="729.24" from="-E2" to="E6"/>
    <trip id="veh1301" depart="729.95" from="-E6" to="E2"/>
    <trip id="veh388" depart="731.00" from="-E14" to="E10"/>
    <trip id="veh1060" depart="732.67" from="-E13" to="E9"/>
    <trip id="veh358" depart="734.08" from="-E10" to="E13"/>
    <trip id="veh270" depart="739.66" from="-E14" to="E6"/>
    <trip id="veh1526" depart="739.67" from="-E13" to="E6"/>
    <trip id="veh805" depart="740.54" from="-E6" to="E13"/>
    <trip id="veh168" depart="742.78" from="-E6" to="E2"/>
    <trip id="veh743" depart="745.23" from="-E9" to="E13"/>
    <trip id="veh412" depart="753.38" from="-E13" to="E6"/>
    <trip id="veh1590" depart="756.29" from="-E10" to="E6"/>
    <trip id="veh132" depart="756.43" from="-E10" to="E13"/>
    <trip id="veh451" depart="758.43" from="-E2" to="E2"/>
    <trip id="veh154" depart="758.51" from="-E4" to="E10"/>
    <trip id="veh1654" depart="759.29" from="-E10" to="E13"/>
    <trip id="veh484" depart="760.81" from="-E6" to="E13"/>
    <trip id="veh1390" depart="764.50" from="-E9" to="E10"/>
    <trip id="veh1123" depart="766.61" from="-E6" to="E10"/>
    <trip id="veh663" depart="768.04" from="-E14" to="E13"/>
    <trip id="veh1843" depart="768.35" from="-E10" to="E2"/>
    <trip id="veh1177" depart="768.96" from="-E2" to="E10"/>
    <trip id="veh1455" depart="769.88" from="-E6" to="E13"/>
    <trip id="veh1229" depart="770.98" from="-E6" to="E6"/>
    <trip id="veh1338" depart="772.15" from="-E2" to="E6"/>
    <trip id="veh136" depart="773.35" from="-E4" to="E10"/>
    <trip id="veh1132" depart="774.35" from="-E9" to="E13"/>
    <trip id="veh1181" depart="779.18" from="-E14" to="E10"/>
    <trip id="veh225" depart="780.81" from="-E9" to="E4"/>
    <trip id="veh237" depart="781.40" from="-E13" to="E6"/>
    <trip id="veh629" depart="782.53" from="-E2" to="E10"/>
    <trip id="veh236" depart="785.08" from="-E14" to="E10"/>
    <trip id="veh1696" depart="785.79" from="-E9" to="E10"/>
    <trip id="veh1009" depart="786.58" from="-E9" to="E9"/>
    <trip id="veh502" depart="787.53" from="-E4" to="E13"/>
    <trip id="veh385" depart="791.31" from="-E6" to="E13"/>
    <trip id="veh473" depart="793.62" from="-E6" to="E10"/>
    <trip id="veh308" depart="793.95" from="-E4" to="E6"/>
    <trip id="veh547" depart="798.31" from="-E10" to="E13"/>
    <trip id="veh1039" depart="800.46" from="-E9" to="E10"/>
    <trip id="veh1558" depart="801.87" from="-E9" to="E13"/>
    <trip id="veh619" depart="806.82" from="-E13" to="E10"/>
    <trip id="veh703" depart="809.53" from="-E4" to="E6"/>
    <trip id="veh1664" depart="809.85" from="-E14" to="E10"/>
    <trip id="veh1372" depart="812.87" from="-E14" to="E6"/>
    <trip id="veh1964" depart="813.10" from="-E4" to="E10"/>
    <trip id="veh726" depart="813.19" from="-E4" to="E13"/>
    <trip id="veh1714" depart="814.08" from="-E10" to="E6"/>
    <trip id="veh1166" depart="818.38" from="-E2" to="E6"/>
    <trip id="veh732" depart="821.62" from="-E2" to="E4"/>
    <trip id="veh1802" depart="823.18" from="-E9" to="E6"/>
    <trip id="veh1578" depart="824.39" from="-E9" to="E10"/>
    <trip id="veh1745" depart="824.57" from="-E10" to="E10"/>
    <trip id="veh1085" depart="825.03" from="-E10" to="E6"/>
    <trip id="veh1678" depart="825.19" from="-E10" to="E10"/>
    <trip id="veh434" depart="825.83" from="-E4" to="E6"/>
    <trip id="veh1660" depart="826.81" from="-E9" to="E10"/>
    <trip id="veh1276" depart="826.83" from="-E4" to="E6"/>
    <trip id="veh681" depart="828.95" from="-E2" to="E13"/>
    <trip id="veh1684" depart="829.92" from="-E6" to="E10"/>
    <trip id="veh1926" depart="830.30" from="-E2" to="E6"/>
    <trip id="veh1754" depart="830.46" from="-E14" to="E4"/>
    <trip id="veh772" depart="830.87" from="-E9" to="E6"/>
    <trip id="veh1302" depart="831.13" from="-E4" to="E9"/>
    <trip id="veh318" depart="831.23" from="-E4" to="E6"/>
    <trip id="veh1812" depart="835.78" from="-E9" to="E13"/>
    <trip id="veh1479" depart="835.95" from="-E4" to="E6"/>
    <trip id="veh894" depart="835.96" from="-E9" to="E10"/>
    <trip id="veh819" depart="836.95" from="-E13" to="E13"/>
    <trip id="veh178" depart="837.07" from="-E9" to="E10"/>
    <trip id="veh949" depart="839.14" from="-E6" to="E13"/>
    <trip id="veh1656" depart="839.99" from="-E10" to="E13"/>
    <trip id="veh327" depart="841.91" from="-E10" to="E13"/>
    <trip id="veh1588" depart="843.03" from="-E6" to="E10"/>
    <trip id="veh171" depart="843.40" from="-E10" to="E4"/>
    <trip id="veh1938" depart="844.68" from="-E2" to="E13"/>
    <trip id="veh591" depart="846.01" from="-E6" to="E14"/>
    <trip id="veh684" depart="846.51" from="-E13" to="E14"/>
    <trip id="veh1994" depart="846.95" from="-E6" to="E14"/>
    <trip id="veh1731" depart="847.33" from="-E10" to="E10"/>
    <trip id="veh1456" depart="848.14" from="-E13" to="E10"/>
    <trip id="veh1108" depart="849.76" from="-E6" to="E13"/>
    <trip id="veh998" depart="849.85" from="-E10" to="E13"/>
    <trip id="veh1607" depart="851.44" from="-E10" to="E6"/>
    <trip id="veh1849" depart="855.97" from="-E2" to="E14"/>
    <trip id="veh1494" depart="856.49" from="-E13" to="E13"/>
    <trip id="veh889" depart="857.42" from="-E13" to="E13"/>
    <trip id="veh274" depart="858.95" from="-E6" to="E10"/>
    <trip id="veh1487" depart="860.36" from="-E6" to="E13"/>
    <trip id="veh871" depart="860.89" from="-E10" to="E6"/>
    <trip id="veh917" depart="860.94" from="-E6" to="E6"/>
    <trip id="veh1735" depart="862.55" from="-E13" to="E10"/>
    <trip id="veh185" depart="864.52" from="-E13" to="E13"/>
    <trip id="veh1413" depart="864.69" from="-E2" to="E10"/>
    <trip id="veh57" depart="864.95" from="-E10" to="E13"/>
    <trip id="veh1446" depart="867.39" from="-E10" to="E6"/>
    <trip id="veh286" depart="867.57" from="-E6" to="E9"/>
    <trip id="veh1238" depart="867.97" from="-E9" to="E4"/>
    <trip id="veh1155" depart="868.46" from="-E14" to="E13"/>
    <trip id="veh1803" depart="870.99" from="-E14" to="E10"/>
    <trip id="veh1324" depart="871.47" from="-E6" to="E13"/>
    <trip id="veh235" depart="872.36" from="-E2" to="E13"/>
    <trip id="veh340" depart="872.52" from="-E10" to="E10"/>
    <trip id="veh1756" depart="875.37" from="-E10" to="E6"/>
    <trip id="veh846" depart="875.44" from="-E14" to="E13"/>
    <trip id="veh863" depart="877.75" from="-E2" to="E10"/>
    <trip id="veh501" depart="877.96" from="-E4" to="E13"/>
    <trip id="veh137" depart="878.18" from="-E4" to="E13"/>
    <trip id="veh823" depart="878.28" from="-E4" to="E13"/>
    <trip id="veh1306" depart="878.80" from="-E9" to="E6"/>
    <trip id="veh189" depart="880.17" from="-E4" to="E13"/>
    <trip id="veh1675" depart="880.82" from="-E2" to="E10"/>
    <trip id="veh278" depart="883.16" from="-E14" to="E10"/>
    <trip id="veh1160" depart="883.90" from="-E10" to="E13"/>
    <trip id="veh1851" depart="885.09" from="-E9" to="E6"/>
    <trip id="veh1410" depart="886.32" from="-E6" to="E6"/>
    <trip id="veh752" depart="886.54" from="-E4" to="E10"/>
    <trip id="veh243" depart="887.01" from="-E6" to="E13"/>
    <trip id="veh539" depart="891.53" from="-E4" to="E13"/>
    <trip id="veh862" depart="892.32" from="-E4" to="E10"/>
    <trip id="veh1045" depart="892.54" from="-E6" to="E6"/>
    <trip id="veh1209" depart="892.61" from="-E2" to="E6"/>
    <trip id="veh78" depart="893.62" from="-E10" to="E13"/>
    <trip id="veh1712" depart="895.42" from="-E10" to="E10"/>
    <trip id="veh65" depart="895.73" from="-E14" to="E9"/>
    <trip id="veh740" depart="895.91" from="-E6" to="E6"/>
    <trip id="veh1858" depart="897.57" from="-E9" to="E9"/>
    <trip id="veh91" depart="899.24" from="-E14" to="E10"/>
    <trip id="veh276" depart="899.96" from="-E4" to="E10"/>
    <trip id="veh1427" depart="900.14" from="-E2" to="E14"/>
    <trip id="veh37" depart="900.97" from="-E13" to="E6"/>
    <trip id="veh5" depart="903.25" from="-E2" to="E6"/>
    <trip id="veh1277" depart="905.09" from="-E14" to="E6"/>
    <trip id="veh1640" depart="905.15" from="-E2" to="E13"/>
    <trip id="veh1784" depart="906.45" from="-E13" to="E6"/>
    <trip id="veh1806" depart="906.49" from="-E4" to="E13"/>
    <trip id="veh1546" depart="906.78" from="-E13" to="E6"/>
    <trip id="veh1152" depart="907.85" from="-E14" to="E6"/>
    <trip id="veh391" depart="908.61" from="-E10" to="E13"/>
    <trip id="veh1113" depart="908.91" from="-E6" to="E10"/>
    <trip id="veh1449" depart="912.05" from="-E2" to="E9"/>
    <trip id="veh1763" depart="912.45" from="-E4" to="E10"/>
    <trip id="veh996" depart="913.29" from="-E9" to="E9"/>
    <trip id="veh588" depart="916.98" from="-E9" to="E6"/>
    <trip id="veh205" depart="918.51" from="-E10" to="E10"/>
    <trip id="veh890" depart="919.15" from="-E2" to="E13"/>
    <trip id="veh1221" depart="920.15" from="-E6" to="E10"/>
    <trip id="veh548" depart="921.85" from="-E13" to="E13"/>
    <trip id="veh1611" depart="923.84" from="-E13" to="E13"/>
    <trip id="veh1686" depart="923.98" from="-E9" to="E13"/>
    <trip id="veh1389" depart="926.33" from="-E6" to="E10"/>
    <trip id="veh1247" depart="928.38" from="-E9" to="E10"/>
    <trip id="veh119" depart="928.72" from="-E2" to="E10"/>
    <trip id="veh1429" depart="928.96" from="-E6" to="E10"/>
    <trip id="veh1768" depart="929.67" from="-E13" to="E13"/>
    <trip id="veh1250" depart="930.17" from="-E4" to="E9"/>
    <trip id="veh966" depart="930.42" from="-E9" to="E13"/>
    <trip id="veh88" depart="931.76" from="-E14" to="E9"/>
    <trip id="veh461" depart="933.53" from="-E14" to="E6"/>
    <trip id="veh354" depart="934.17" from="-E2" to="E13"/>
    <trip id="veh1445" depart="934.37" from="-E6" to="E10"/>
    <trip id="veh1970" depart="934.48" from="-E4" to="E6"/>
    <trip id="veh780" depart="935.21" from="-E4" to="E13"/>
    <trip id="veh420" depart="935.40" from="-E9" to="E13"/>
    <trip id="veh1157" depart="936.22" from="-E2" to="E10"/>
    <trip id="veh1525" depart="937.13" from="-E10" to="E13"/>
    <trip id="veh1749" depart="937.93" from="-E2" to="E6"/>
    <trip id="veh686" depart="938.28" from="-E10" to="E10"/>
    <trip id="veh989" depart="939.45" from="-E10" to="E6"/>
    <trip id="veh1623" depart="940.08" from="-E4" to="E10"/>
    <trip id="veh1685" depart="942.21" from="-E14" to="E10"/>
    <trip id="veh1403" depart="944.05" from="-E6" to="E9"/>
    <trip id="veh1538" depart="944.08" from="-E2" to="E13"/>
    <trip id="veh1313" depart="944.70" from="-E14" to="E10"/>
    <trip id="veh1295" depart="945.63" from="-E10" to="E6"/>
    <trip id="veh670" depart="947.60" from="-E9" to="E10"/>
    <trip id="veh728" depart="948.09" from="-E9" to="E13"/>
    <trip id="veh1329" depart="949.52" from="-E13" to="E14"/>
    <trip id="veh113" depart="949.61" from="-E2" to="E13"/>
    <trip id="veh1279" depart="949.67" from="-E2" to="E6"/>
    <trip id="veh573" depart="949.78" from="-E10" to="E13"/>
    <trip id="veh508" depart="951.91" from="-E13" to="E6"/>
    <trip id="veh1156" depart="952.31" from="-E10" to="E10"/>
    <trip id="veh1903" depart="952.47" from="-E6" to="E10"/>
    <trip id="veh285" depart="953.76" from="-E4" to="E13"/>
    <trip id="veh1488" depart="954.05" from="-E13" to="E13"/>
    <trip id="veh487" depart="957.15" from="-E9" to="E10"/>
    <trip id="veh576" depart="957.28" from="-E13" to="E14"/>
    <trip id="veh407" depart="957.51" from="-E9" to="E6"/>
    <trip id="veh956" depart="957.54" from="-E9" to="E13"/>
    <trip id="veh1240" depart="957.59" from="-E2" to="E6"/>
    <trip id="veh643" depart="957.66" from="-E4" to="E10"/>
    <trip id="veh617" depart="957.88" from="-E13" to="E6"/>
    <trip id="veh421" depart="958.57" from="-E2" to="E9"/>
    <trip id="veh1677" depart="959.17" from="-E10" to="E6"/>
    <trip id="veh1005" depart="960.32" from="-E14" to="E6"/>
    <trip id="veh250" depart="964.07" from="-E2" to="E2"/>
    <trip id="veh1317" depart="964.94" from="-E14" to="E4"/>
    <trip id="veh1353" depart="965.19" from="-E2" to="E6"/>
    <trip id="veh722" depart="969.27" from="-E9" to="E13"/>
    <trip id="veh1603" depart="969.75" from="-E6" to="E6"/>
    <trip id="veh432" depart="971.01" from="-E13" to="E10"/>
    <trip id="veh336" depart="972.06" from="-E9" to="E10"/>
    <trip id="veh1867" depart="972.61" from="-E6" to="E10"/>
    <trip id="veh1095" depart="972.79" from="-E4" to="E13"/>
    <trip id="veh1228" depart="973.43" from="-E14" to="E10"/>
    <trip id="veh828" depart="973.67" from="-E6" to="E6"/>
    <trip id="veh1701" depart="973.76" from="-E13" to="E14"/>
    <trip id="veh1290" depart="975.38" from="-E14" to="E13"/>
    <trip id="veh1897" depart="977.32" from="-E14" to="E13"/>
    <trip id="veh1868" depart="977.89" from="-E13" to="E6"/>
    <trip id="veh1167" depart="978.89" from="-E6" to="E6"/>
    <trip id="veh613" depart="979.37" from="-E2" to="E13"/>
    <trip id="veh172" depart="980.14" from="-E9" to="E13"/>
    <trip id="veh1010" depart="981.44" from="-E6" to="E6"/>
    <trip id="veh1885" depart="982.85" from="-E9" to="E13"/>
    <trip id="veh518" depart="984.61" from="-E2" to="E2"/>
    <trip id="veh1326" depart="985.23" from="-E14" to="E10"/>
    <trip id="veh117" depart="989.26" from="-E14" to="E13"/>
    <trip id="veh500" depart="991.87" from="-E4" to="E13"/>
    <trip id="veh685" depart="991.99" from="-E4" to="E10"/>
    <trip id="veh535" depart="995.16" from="-E14" to="E13"/>
    <trip id="veh1780" depart="995.17" from="-E13" to="E10"/>
    <trip id="veh767" depart="995.58" from="-E10" to="E10"/>
    <trip id="veh887" depart="997.65" from="-E2" to="E13"/>
    <trip id="veh139" depart="998.38" from="-E9" to="E13"/>
    <trip id="veh809" depart="1000.44" from="-E10" to="E6"/>
    <trip id="veh493" depart="1000.86" from="-E9" to="E6"/>
    <trip id="veh608" depart="1002.75" from="-E2" to="E10"/>
    <trip id="veh689" depart="1002.80" from="-E13" to="E6"/>
    <trip id="veh898" depart="1003.41" from="-E9" to="E4"/>
    <trip id="veh1659" depart="1004.14" from="-E10" to="E4"/>
    <trip id="veh107" depart="1004.67" from="-E14" to="E10"/>
    <trip id="veh1208" depart="1005.16" from="-E2" to="E6"/>
    <trip id="veh650" depart="1007.01" from="-E13" to="E10"/>
    <trip id="veh1940" depart="1008.56" from="-E10" to="E10"/>
    <trip id="veh997" depart="1011.03" from="-E6" to="E6"/>
    <trip id="veh770" depart="1011.88" from="-E4" to="E13"/>
    <trip id="veh1428" depart="1013.75" from="-E13" to="E13"/>
    <trip id="veh530" depart="1013.84" from="-E14" to="E13"/>
    <trip id="veh1225" depart="1014.86" from="-E2" to="E6"/>
    <trip id="veh1467" depart="1015.40" from="-E14" to="E6"/>
    <trip id="veh507" depart="1016.00" from="-E6" to="E2"/>
    <trip id="veh155" depart="1016.97" from="-E10" to="E6"/>
    <trip id="veh1972" depart="1017.12" from="-E6" to="E9"/>
    <trip id="veh1300" depart="1017.90" from="-E9" to="E6"/>
    <trip id="veh481" depart="1019.01" from="-E2" to="E9"/>
    <trip id="veh1819" depart="1019.03" from="-E6" to="E13"/>
    <trip id="veh918" depart="1021.01" from="-E14" to="E13"/>
    <trip id="veh1739" depart="1021.66" from="-E6" to="E6"/>
    <trip id="veh1519" depart="1021.81" from="-E2" to="E6"/>
    <trip id="veh1174" depart="1022.41" from="-E10" to="E13"/>
    <trip id="veh1817" depart="1023.90" from="-E6" to="E13"/>
    <trip id="veh1632" depart="1024.19" from="-E4" to="E6"/>
    <trip id="veh1549" depart="1025.43" from="-E10" to="E9"/>
    <trip id="veh642" depart="1026.12" from="-E6" to="E6"/>
    <trip id="veh1647" depart="1027.87" from="-E6" to="E10"/>
    <trip id="veh441" depart="1030.29" from="-E14" to="E13"/>
    <trip id="veh1230" depart="1032.25" from="-E2" to="E6"/>
    <trip id="veh1130" depart="1032.73" from="-E9" to="E10"/>
    <trip id="veh505" depart="1033.63" from="-E13" to="E2"/>
    <trip id="veh1748" depart="1033.98" from="-E6" to="E6"/>
    <trip id="veh891" depart="1036.00" from="-E2" to="E10"/>
    <trip id="veh144" depart="1037.27" from="-E13" to="E6"/>
    <trip id="veh1864" depart="1037.67" from="-E9" to="E6"/>
    <trip id="veh1648" depart="1038.15" from="-E2" to="E10"/>
    <trip id="veh1206" depart="1038.16" from="-E6" to="E14"/>
    <trip id="veh84" depart="1038.20" from="-E6" to="E6"/>
    <trip id="veh661" depart="1041.14" from="-E10" to="E13"/>
    <trip id="veh76" depart="1043.79" from="-E14" to="E13"/>
    <trip id="veh721" depart="1045.55" from="-E6" to="E10"/>
    <trip id="veh1471" depart="1045.66" from="-E2" to="E13"/>
    <trip id="veh1875" depart="1045.73" from="-E6" to="E6"/>
    <trip id="veh839" depart="1049.52" from="-E10" to="E13"/>
    <trip id="veh347" depart="1049.98" from="-E2" to="E6"/>
    <trip id="veh652" depart="1050.05" from="-E14" to="E10"/>
    <trip id="veh541" depart="1050.43" from="-E4" to="E13"/>
    <trip id="veh1386" depart="1051.71" from="-E6" to="E10"/>
    <trip id="veh583" depart="1053.34" from="-E10" to="E6"/>
    <trip id="veh928" depart="1055.19" from="-E6" to="E10"/>
    <trip id="veh675" depart="1057.49" from="-E10" to="E6"/>
    <trip id="veh140" depart="1058.36" from="-E14" to="E4"/>
    <trip id="veh102" depart="1061.32" from="-E9" to="E10"/>
    <trip id="veh130" depart="1062.79" from="-E2" to="E6"/>
    <trip id="veh464" depart="1064.99" from="-E4" to="E6"/>
    <trip id="veh859" depart="1065.18" from="-E6" to="E6"/>
    <trip id="veh1360" depart="1066.08" from="-E13" to="E13"/>
    <trip id="veh394" depart="1068.89" from="-E2" to="E6"/>
    <trip id="veh639" depart="1069.11" from="-E2" to="E10"/>
    <trip id="veh1447" depart="1069.12" from="-E14" to="E6"/>
    <trip id="veh1493" depart="1069.91" from="-E13" to="E6"/>
    <trip id="veh1830" depart="1070.27" from="-E4" to="E4"/>
    <trip id="veh904" depart="1070.51" from="-E4" to="E13"/>
    <trip id="veh1466" depart="1070.62" from="-E14" to="E6"/>
    <trip id="veh296" depart="1071.08" from="-E6" to="E10"/>
    <trip id="veh419" depart="1071.74" from="-E13" to="E10"/>
    <trip id="veh1721" depart="1071.85" from="-E2" to="E6"/>
    <trip id="veh6" depart="1071.97" from="-E9" to="E6"/>
    <trip id="veh1564" depart="1072.50" from="-E10" to="E13"/>
    <trip id="veh1421" depart="1073.16" from="-E9" to="E10"/>
    <trip id="veh1723" depart="1074.69" from="-E13" to="E6"/>
    <trip id="veh673" depart="1074.89" from="-E9" to="E4"/>
    <trip id="veh360" depart="1075.34" from="-E6" to="E13"/>
    <trip id="veh612" depart="1078.23" from="-E10" to="E14"/>
    <trip id="veh48" depart="1079.83" from="-E10" to="E6"/>
    <trip id="veh1217" depart="1079.99" from="-E10" to="E13"/>
    <trip id="veh372" depart="1080.17" from="-E2" to="E10"/>
    <trip id="veh1797" depart="1080.62" from="-E10" to="E10"/>
    <trip id="veh1673" depart="1080.84" from="-E10" to="E4"/>
    <trip id="veh231" depart="1081.57" from="-E6" to="E13"/>
    <trip id="veh356" depart="1082.50" from="-E2" to="E6"/>
    <trip id="veh995" depart="1082.61" from="-E13" to="E10"/>
    <trip id="veh429" depart="1083.59" from="-E2" to="E13"/>
    <trip id="veh1193" depart="1083.79" from="-E13" to="E10"/>
    <trip id="veh151" depart="1084.10" from="-E14" to="E6"/>
    <trip id="veh496" depart="1084.20" from="-E13" to="E6"/>