<?xml version="1.0" encoding="UTF-8"?>

<!-- generated on 2026-05-31T21:25:46.813834+01:00 by Eclipse SUMO duarouter 1.27.0
<duarouterConfiguration xmlns:xsi="http://www.w3.org/2001/XMLSchema-instance" xsi:noNamespaceSchemaLocation="http://sumo.dlr.de/xsd/duarouterConfiguration.xsd">

    <input>
        <net-file value="c:\Users\RODO\Desktop\Sys auto - Projekt\src\City_map_2\city2.net.xml"/>
        <route-files value="c:\Users\RODO\Desktop\Sys auto - Projekt\src\City_map_2\city2.trips.xml"/>
    </input>

    <output>
        <output-file value="c:\Users\RODO\Desktop\Sys auto - Projekt\src\City_map_2\city2.rou.xml"/>
    </output>

    <report>
        <no-warnings value="true"/>
        <ignore-errors value="true"/>
    </report>

</duarouterConfiguration>
-->

<routes xmlns:xsi="http://www.w3.org/2001/XMLSchema-instance" xsi:noNamespaceSchemaLocation="http://sumo.dlr.de/xsd/routes_file.xsd">
    <vType id="car" maxSpeed="15.00" vClass="passenger" sigma="0.5"/>
    <vehicle id="veh_284" type="car" depart="6.24">
        <route edges="-E9 E11 E13"/>
    </vehicle>
    <vehicle id="veh_197" type="car" depart="6.71">
        <route edges="-E10 E11 E13"/>
    </vehicle>
    <vehicle id="veh_655" type="car" depart="6.76">
        <route edges="-E10 E11 -E12 -E8 E7 E10"/>
    </vehicle>
    <vehicle id="veh_329" type="car" depart="12.77">
        <route edges="-E9 E10"/>
    </vehicle>
    <vehicle id="veh_61" type="car" depart="16.17">
        <route edges="-E13 -E12 -E8 E6"/>
    </vehicle>
    <vehicle id="veh_1093" type="car" depart="16.90">
        <route edges="-E10 -E7 -E0 E4"/>
    </vehicle>
    <vehicle id="veh_150" type="car" depart="21.67">
        <route edges="-E13 -E11 E10"/>
    </vehicle>
    <vehicle id="veh_995" type="car" depart="27.03">
        <route edges="-E14 E12 -E11 E9"/>
    </vehicle>
    <vehicle id="veh_1182" type="car" depart="29.88">
        <route edges="-E6 E7 E10"/>
    </vehicle>
    <vehicle id="veh_1164" type="car" depart="41.07">
        <route edges="-E2 E3 E12 E13"/>
    </vehicle>
    <vehicle id="veh_49" type="car" depart="42.51">
        <route edges="-E14 E12 E13"/>
    </vehicle>
    <vehicle id="veh_151" type="car" depart="44.50">
        <route edges="-E14 E12 E13"/>
    </vehicle>
    <vehicle id="veh_447" type="car" depart="46.64">
        <route edges="-E9 E10"/>
    </vehicle>
    <vehicle id="veh_910" type="car" depart="47.53">
        <route edges="-E10 E11 -E12 -E8 E7 E10"/>
    </vehicle>
    <vehicle id="veh_110" type="car" depart="48.33">
        <route edges="-E14 E12 E13"/>
    </vehicle>
    <vehicle id="veh_168" type="car" depart="50.04">
        <route edges="-E6 E7 E10"/>
    </vehicle>
    <vehicle id="veh_1060" type="car" depart="55.71">
        <route edges="-E13 -E12 -E8 E7 E11 E13"/>
    </vehicle>
    <vehicle id="veh_457" type="car" depart="56.18">
        <route edges="-E6 E8 E12 E13"/>
    </vehicle>
    <vehicle id="veh_939" type="car" depart="59.54">
        <route edges="-E6 E7 E10"/>
    </vehicle>
    <vehicle id="veh_390" type="car" depart="61.54">
        <route edges="-E13 -E12 -E8 E6"/>
    </vehicle>
    <vehicle id="veh_181" type="car" depart="61.85">
        <route edges="-E13 -E12 -E8 E7 E11 E13"/>
    </vehicle>
    <vehicle id="veh_1158" type="car" depart="65.53">
        <route edges="-E6 E8 E12 E13"/>
    </vehicle>
    <vehicle id="veh_158" type="car" depart="66.64">
        <route edges="-E13 -E12 -E8 E7 E11 E13"/>
    </vehicle>
    <vehicle id="veh_959" type="car" depart="67.69">
        <route edges="-E14 E12 E13"/>
    </vehicle>
    <vehicle id="veh_264" type="car" depart="68.02">
        <route edges="-E9 E11 E13"/>
    </vehicle>
    <vehicle id="veh_301" type="car" depart="72.44">
        <route edges="-E2 E3 -E8 E6"/>
    </vehicle>
    <vehicle id="veh_1144" type="car" depart="72.48">
        <route edges="-E9 E11 E13"/>
    </vehicle>
    <vehicle id="veh_476" type="car" depart="73.87">
        <route edges="-E2 E3 -E8 E6"/>
    </vehicle>
    <vehicle id="veh_630" type="car" depart="76.65">
        <route edges="-E9 E11 E13"/>
    </vehicle>
    <vehicle id="veh_1046" type="car" depart="79.10">
        <route edges="-E9 E10"/>
    </vehicle>
    <vehicle id="veh_1192" type="car" depart="79.26">
        <route edges="-E9 E11 E13"/>
    </vehicle>
    <vehicle id="veh_440" type="car" depart="83.10">
        <route edges="-E9 E11 -E12 E14"/>
    </vehicle>
    <vehicle id="veh_1058" type="car" depart="83.18">
        <route edges="-E10 E11 E13"/>
    </vehicle>
    <vehicle id="veh_686" type="car" depart="84.50">
        <route edges="-E2 E3 -E8 E6"/>
    </vehicle>
    <vehicle id="veh_342" type="car" depart="85.58">
        <route edges="-E6 E5 -E1 E0 E6"/>
    </vehicle>
    <vehicle id="veh_641" type="car" depart="86.05">
        <route edges="-E6 E7 E10"/>
    </vehicle>
    <vehicle id="veh_1065" type="car" depart="86.76">
        <route edges="-E10 -E7 E6"/>
    </vehicle>
    <vehicle id="veh_127" type="car" depart="88.12">
        <route edges="-E14 E12 E13"/>
    </vehicle>
    <vehicle id="veh_952" type="car" depart="88.57">
        <route edges="-E2 -E1 E0 E7 E10"/>
    </vehicle>
    <vehicle id="veh_1197" type="car" depart="91.04">
        <route edges="-E14 E12 E13"/>
    </vehicle>
    <vehicle id="veh_74" type="car" depart="91.10">
        <route edges="-E14 E12 E13"/>
    </vehicle>
    <vehicle id="veh_829" type="car" depart="92.42">
        <route edges="-E2 E3 -E8 E6"/>
    </vehicle>
    <vehicle id="veh_338" type="car" depart="92.55">
        <route edges="-E10 E11 E13"/>
    </vehicle>
    <vehicle id="veh_1116" type="car" depart="93.59">
        <route edges="-E14 E12 E13"/>
    </vehicle>
    <vehicle id="veh_1115" type="car" depart="99.22">
        <route edges="-E4 E0 E6"/>
    </vehicle>
    <vehicle id="veh_1142" type="car" depart="100.65">
        <route edges="-E14 -E8 E6"/>
    </vehicle>
    <vehicle id="veh_166" type="car" depart="100.92">
        <route edges="-E14 E12 E13"/>
    </vehicle>
    <vehicle id="veh_191" type="car" depart="103.43">
        <route edges="-E6 E8 E12 E13"/>
    </vehicle>
    <vehicle id="veh_79" type="car" depart="105.99">
        <route edges="-E14 -E8 E7 E10"/>
    </vehicle>
    <vehicle id="veh_1154" type="car" depart="110.80">
        <route edges="-E13 -E12 -E8 E6"/>
    </vehicle>
    <vehicle id="veh_68" type="car" depart="110.98">
        <route edges="-E4 E0 E7 E11 E13"/>
    </vehicle>
    <vehicle id="veh_378" type="car" depart="111.84">
        <route edges="-E10 -E7 E6"/>
    </vehicle>
    <vehicle id="veh_1075" type="car" depart="112.09">
        <route edges="-E10 -E7 E6"/>
    </vehicle>
    <vehicle id="veh_792" type="car" depart="121.39">
        <route edges="-E9 -E7 E6"/>
    </vehicle>
    <vehicle id="veh_1112" type="car" depart="124.67">
        <route edges="-E2 E3 E12 E13"/>
    </vehicle>
    <vehicle id="veh_973" type="car" depart="127.53">
        <route edges="-E10 -E7 E6"/>
    </vehicle>
    <vehicle id="veh_834" type="car" depart="127.59">
        <route edges="-E2 -E1 E0 E7 E10"/>
    </vehicle>
    <vehicle id="veh_39" type="car" depart="127.62">
        <route edges="-E6 E5 -E1 E0 E6"/>
    </vehicle>
    <vehicle id="veh_1199" type="car" depart="129.27">
        <route edges="-E4 E0 E6"/>
    </vehicle>
    <vehicle id="veh_186" type="car" depart="133.30">
        <route edges="-E13 -E12 -E8 E7 E11 E13"/>
    </vehicle>
    <vehicle id="veh_688" type="car" depart="139.44">
        <route edges="-E4 E0 E7 E10"/>
    </vehicle>
    <vehicle id="veh_114" type="car" depart="140.34">
        <route edges="-E13 -E12 -E8 E7 E11 E13"/>
    </vehicle>
    <vehicle id="veh_570" type="car" depart="146.24">
        <route edges="-E4 E0 E6"/>
    </vehicle>
    <vehicle id="veh_905" type="car" depart="148.49">
        <route edges="-E6 E8 E14"/>
    </vehicle>
    <vehicle id="veh_773" type="car" depart="148.74">
        <route edges="-E10 E11 -E12 -E8 E7 E10"/>
    </vehicle>
    <vehicle id="veh_1069" type="car" depart="151.17">
        <route edges="-E4 E0 E8 E14"/>
    </vehicle>
    <vehicle id="veh_1106" type="car" depart="156.66">
        <route edges="-E9 E11 E13"/>
    </vehicle>
    <vehicle id="veh_991" type="car" depart="157.75">
        <route edges="-E10 -E7 -E0 E4"/>
    </vehicle>
    <vehicle id="veh_650" type="car" depart="161.09">
        <route edges="-E6 E7 E10"/>
    </vehicle>
    <vehicle id="veh_844" type="car" depart="164.76">
        <route edges="-E2 -E1 E0 E7 E10"/>
    </vehicle>
    <vehicle id="veh_928" type="car" depart="165.12">
        <route edges="-E2 -E1 E0 E7 E10"/>
    </vehicle>
    <vehicle id="veh_205" type="car" depart="169.43">
        <route edges="-E4 E0 E7 E10"/>
    </vehicle>
    <vehicle id="veh_545" type="car" depart="171.74">
        <route edges="-E9 -E7 E6"/>
    </vehicle>
    <vehicle id="veh_691" type="car" depart="173.64">
        <route edges="-E6 E5 -E1 E0 E6"/>
    </vehicle>
    <vehicle id="veh_316" type="car" depart="178.44">
        <route edges="-E14 -E8 E6"/>
    </vehicle>
    <vehicle id="veh_893" type="car" depart="180.36">
        <route edges="-E14 -E8 E6"/>
    </vehicle>
    <vehicle id="veh_402" type="car" depart="183.31">
        <route edges="-E14 -E8 E7 E10"/>
    </vehicle>
    <vehicle id="veh_676" type="car" depart="183.53">
        <route edges="-E2 -E1 E0 E7 E10"/>
    </vehicle>
    <vehicle id="veh_1019" type="car" depart="185.47">
        <route edges="-E9 -E7 E6"/>
    </vehicle>
    <vehicle id="veh_546" type="car" depart="187.95">
        <route edges="-E9 E10"/>
    </vehicle>
    <vehicle id="veh_11" type="car" depart="188.33">
        <route edges="-E6 E8 E12 E13"/>
    </vehicle>
    <vehicle id="veh_577" type="car" depart="191.37">
        <route edges="-E10 E11 -E12 -E8 E7 E10"/>
    </vehicle>
    <vehicle id="veh_971" type="car" depart="192.07">
        <route edges="-E6 E5 -E1 E0 E6"/>
    </vehicle>
    <vehicle id="veh_320" type="car" depart="192.43">
        <route edges="-E10 -E7 E6"/>
    </vehicle>
    <vehicle id="veh_1171" type="car" depart="194.74">
        <route edges="-E13 -E11 E10"/>
    </vehicle>
    <vehicle id="veh_745" type="car" depart="195.12">
        <route edges="-E13 -E12 -E8 E7 E11 E13"/>
    </vehicle>
    <vehicle id="veh_189" type="car" depart="196.54">
        <route edges="-E4 E0 E7 E11 E13"/>
    </vehicle>
    <vehicle id="veh_321" type="car" depart="204.80">
        <route edges="-E14 E12 E13"/>
    </vehicle>
    <vehicle id="veh_527" type="car" depart="213.60">
        <route edges="-E14 -E8 E7 E10"/>
    </vehicle>
    <vehicle id="veh_488" type="car" depart="214.14">
        <route edges="-E6 E7 E10"/>
    </vehicle>
    <vehicle id="veh_744" type="car" depart="215.49">
        <route edges="-E13 -E12 -E8 E7 E11 E13"/>
    </vehicle>
    <vehicle id="veh_273" type="car" depart="220.11">
        <route edges="-E2 E3 E12 E13"/>
    </vehicle>
    <vehicle id="veh_1057" type="car" depart="221.65">
        <route edges="-E2 -E1 E0 E5 E2"/>
    </vehicle>
    <vehicle id="veh_841" type="car" depart="224.16">
        <route edges="-E2 E3 -E8 E6"/>
    </vehicle>
    <vehicle id="veh_539" type="car" depart="225.30">
        <route edges="-E6 E7 E10"/>
    </vehicle>
    <vehicle id="veh_371" type="car" depart="227.22">
        <route edges="-E9 E11 E13"/>
    </vehicle>
    <vehicle id="veh_75" type="car" depart="230.44">
        <route edges="-E4 E0 E7 E11 E13"/>
    </vehicle>
    <vehicle id="veh_949" type="car" depart="241.93">
        <route edges="-E9 E11 -E12 E14"/>
    </vehicle>
    <vehicle id="veh_30" type="car" depart="242.28">
        <route edges="-E6 E8 E12 E13"/>
    </vehicle>
    <vehicle id="veh_990" type="car" depart="242.76">
        <route edges="-E14 -E8 E7 E10"/>
    </vehicle>
    <vehicle id="veh_996" type="car" depart="244.09">
        <route edges="-E14 E12 E13"/>
    </vehicle>
    <vehicle id="veh_786" type="car" depart="246.26">
        <route edges="-E13 -E12 -E8 E7 E11 E13"/>
    </vehicle>
    <vehicle id="veh_111" type="car" depart="254.01">
        <route edges="-E2 E3 E14"/>
    </vehicle>
    <vehicle id="veh_373" type="car" depart="258.58">
        <route edges="-E9 -E7 E6"/>
    </vehicle>
    <vehicle id="veh_1148" type="car" depart="263.99">
        <route edges="-E13 -E11 E10"/>
    </vehicle>
    <vehicle id="veh_217" type="car" depart="278.87">
        <route edges="-E2 E3 -E8 E6"/>
    </vehicle>
    <vehicle id="veh_303" type="car" depart="284.01">
        <route edges="-E13 -E12 -E8 E6"/>
    </vehicle>
    <vehicle id="veh_919" type="car" depart="284.35">
        <route edges="-E6 E5 E2"/>
    </vehicle>
    <vehicle id="veh_818" type="car" depart="289.41">
        <route edges="-E4 E0 E7 E11 E13"/>
    </vehicle>
    <vehicle id="veh_510" type="car" depart="289.96">
        <route edges="-E6 E5 -E1 E0 E6"/>
    </vehicle>
    <vehicle id="veh_296" type="car" depart="298.51">
        <route edges="-E6 E7 E10"/>
    </vehicle>
    <vehicle id="veh_451" type="car" depart="301.17">
        <route edges="-E10 -E7 E6"/>
    </vehicle>
    <vehicle id="veh_91" type="car" depart="307.70">
        <route edges="-E13 -E12 -E8 E6"/>
    </vehicle>
    <vehicle id="veh_803" type="car" depart="311.76">
        <route edges="-E13 -E12 -E8 E7 E11 E13"/>
    </vehicle>
    <vehicle id="veh_693" type="car" depart="313.34">
        <route edges="-E10 -E7 E6"/>
    </vehicle>
    <vehicle id="veh_517" type="car" depart="314.44">
        <route edges="-E10 E11 -E12 -E8 E7 E10"/>
    </vehicle>
    <vehicle id="veh_478" type="car" depart="317.61">
        <route edges="-E10 -E7 E6"/>
    </vehicle>
    <vehicle id="veh_860" type="car" depart="325.18">
        <route edges="-E10 E11 -E12 -E8 E7 E10"/>
    </vehicle>
    <vehicle id="veh_653" type="car" depart="327.23">
        <route edges="-E14 -E8 E7 E10"/>
    </vehicle>
    <vehicle id="veh_272" type="car" depart="327.59">
        <route edges="-E2 -E1 E0 E7 E10"/>
    </vehicle>
    <vehicle id="veh_164" type="car" depart="329.67">
        <route edges="-E4 E0 E7 E11 E13"/>
    </vehicle>
    <vehicle id="veh_748" type="car" depart="336.13">
        <route edges="-E2 E3 -E8 E6"/>
    </vehicle>
    <vehicle id="veh_906" type="car" depart="337.84">
        <route edges="-E6 E8 E12 E13"/>
    </vehicle>
    <vehicle id="veh_253" type="car" depart="338.00">
        <route edges="-E2 E3 E12 E13"/>
    </vehicle>
    <vehicle id="veh_1121" type="car" depart="339.91">
        <route edges="-E14 -E8 E7 E10"/>
    </vehicle>
    <vehicle id="veh_494" type="car" depart="344.01">
        <route edges="-E6 E5 -E1 E0 E6"/>
    </vehicle>
    <vehicle id="veh_612" type="car" depart="344.13">
        <route edges="-E9 E10"/>
    </vehicle>
    <vehicle id="veh_569" type="car" depart="344.66">
        <route edges="-E13 -E12 -E8 E7 E11 E13"/>
    </vehicle>
    <vehicle id="veh_657" type="car" depart="348.92">
        <route edges="-E4 E0 E7 E11 E13"/>
    </vehicle>
    <vehicle id="veh_972" type="car" depart="352.04">
        <route edges="-E9 E10"/>
    </vehicle>
    <vehicle id="veh_718" type="car" depart="352.99">
        <route edges="-E10 E11 E13"/>
    </vehicle>
    <vehicle id="veh_757" type="car" depart="354.46">
        <route edges="-E14 E12 E13"/>
    </vehicle>
    <vehicle id="veh_816" type="car" depart="359.69">
        <route edges="-E6 E8 E12 E13"/>
    </vehicle>
    <vehicle id="veh_1160" type="car" depart="361.39">
        <route edges="-E13 -E12 -E8 E6"/>
    </vehicle>
    <vehicle id="veh_52" type="car" depart="362.61">
        <route edges="-E2 -E1 E0 E7 E10"/>
    </vehicle>
    <vehicle id="veh_297" type="car" depart="364.84">
        <route edges="-E2 -E1 E0 E7 E10"/>
    </vehicle>
    <vehicle id="veh_670" type="car" depart="364.86">
        <route edges="-E4 E0 E7 E10"/>
    </vehicle>
    <vehicle id="veh_492" type="car" depart="365.21">
        <route edges="-E6 E5 -E1 E0 E6"/>
    </vehicle>
    <vehicle id="veh_42" type="car" depart="365.24">
        <route edges="-E10 E11 -E12 -E8 E7 E10"/>
    </vehicle>
    <vehicle id="veh_660" type="car" depart="375.14">
        <route edges="-E14 E12 E13"/>
    </vehicle>
    <vehicle id="veh_1004" type="car" depart="376.92">
        <route edges="-E6 E7 E10"/>
    </vehicle>
    <vehicle id="veh_304" type="car" depart="380.34">
        <route edges="-E14 -E3 E2"/>
    </vehicle>
    <vehicle id="veh_174" type="car" depart="381.27">
        <route edges="-E6 E7 E10"/>
    </vehicle>
    <vehicle id="veh_845" type="car" depart="381.59">
        <route edges="-E14 -E8 E6"/>
    </vehicle>
    <vehicle id="veh_149" type="car" depart="392.13">
        <route edges="-E9 E10"/>
    </vehicle>
    <vehicle id="veh_1084" type="car" depart="397.15">
        <route edges="-E9 -E7 E6"/>
    </vehicle>
    <vehicle id="veh_261" type="car" depart="399.18">
        <route edges="-E14 -E8 E7 E10"/>
    </vehicle>
    <vehicle id="veh_73" type="car" depart="401.06">
        <route edges="-E2 -E1 E0 E7 E10"/>
    </vehicle>
    <vehicle id="veh_711" type="car" depart="402.84">
        <route edges="-E4 E0 E6"/>
    </vehicle>
    <vehicle id="veh_934" type="car" depart="403.60">
        <route edges="-E14 -E8 E7 E10"/>
    </vehicle>
    <vehicle id="veh_645" type="car" depart="406.77">
        <route edges="-E10 E11 -E12 -E8 E7 E10"/>
    </vehicle>
    <vehicle id="veh_625" type="car" depart="407.56">
        <route edges="-E9 E11 E13"/>
    </vehicle>
    <vehicle id="veh_423" type="car" depart="408.25">
        <route edges="-E9 -E7 E6"/>
    </vehicle>
    <vehicle id="veh_344" type="car" depart="412.00">
        <route edges="-E13 -E12 E14"/>
    </vehicle>
    <vehicle id="veh_163" type="car" depart="415.90">
        <route edges="-E4 E0 E7 E11 E13"/>
    </vehicle>
    <vehicle id="veh_1159" type="car" depart="417.81">
        <route edges="-E6 E8 E12 E13"/>
    </vehicle>
    <vehicle id="veh_286" type="car" depart="417.82">
        <route edges="-E10 -E7 E6"/>
    </vehicle>
    <vehicle id="veh_1161" type="car" depart="418.19">
        <route edges="-E13 -E11 E10"/>
    </vehicle>
    <vehicle id="veh_484" type="car" depart="420.74">
        <route edges="-E13 -E12 E14"/>
    </vehicle>
    <vehicle id="veh_332" type="car" depart="421.03">
        <route edges="-E2 E3 E12 E13"/>
    </vehicle>
    <vehicle id="veh_985" type="car" depart="422.26">
        <route edges="-E4 E0 E7 E11 E13"/>
    </vehicle>
    <vehicle id="veh_346" type="car" depart="422.89">
        <route edges="-E4 E0 E7 E11 E13"/>
    </vehicle>
    <vehicle id="veh_589" type="car" depart="427.37">
        <route edges="-E14 -E8 E6"/>
    </vehicle>
    <vehicle id="veh_542" type="car" depart="429.01">
        <route edges="-E9 E11 E13"/>
    </vehicle>
    <vehicle id="veh_533" type="car" depart="429.11">
        <route edges="-E9 E10"/>
    </vehicle>
    <vehicle id="veh_568" type="car" depart="430.29">
        <route edges="-E13 -E12 -E8 E7 E11 E13"/>
    </vehicle>
    <vehicle id="veh_1010" type="car" depart="431.40">
        <route edges="-E10 E11 -E12 -E8 E7 E10"/>
    </vehicle>
    <vehicle id="veh_898" type="car" depart="436.37">
        <route edges="-E9 -E7 E6"/>
    </vehicle>
    <vehicle id="veh_731" type="car" depart="449.59">
        <route edges="-E10 -E7 E6"/>
    </vehicle>
    <vehicle id="veh_673" type="car" depart="455.92">
        <route edges="-E6 E7 E10"/>
    </vehicle>
    <vehicle id="veh_640" type="car" depart="458.17">
        <route edges="-E9 E10"/>
    </vehicle>
    <vehicle id="veh_511" type="car" depart="464.11">
        <route edges="-E4 E0 E7 E11 E13"/>
    </vehicle>
    <vehicle id="veh_1002" type="car" depart="467.70">
        <route edges="-E9 E11 E13"/>
    </vehicle>
    <vehicle id="veh_617" type="car" depart="476.04">
        <route edges="-E2 -E1 E0 E7 E10"/>
    </vehicle>
    <vehicle id="veh_413" type="car" depart="480.92">
        <route edges="-E14 E12 E13"/>
    </vehicle>
    <vehicle id="veh_57" type="car" depart="482.10">
        <route edges="-E10 -E7 E6"/>
    </vehicle>
    <vehicle id="veh_1085" type="car" depart="482.39">
        <route edges="-E9 E11 E13"/>
    </vehicle>
    <vehicle id="veh_1061" type="car" depart="483.65">
        <route edges="-E10 -E7 E6"/>
    </vehicle>
    <vehicle id="veh_795" type="car" depart="487.52">
        <route edges="-E13 -E12 -E8 E7 E11 E13"/>
    </vehicle>
    <vehicle id="veh_1136" type="car" depart="489.65">
        <route edges="-E2 E3 -E8 E6"/>
    </vehicle>
    <vehicle id="veh_459" type="car" depart="493.68">
        <route edges="-E14 E12 E13"/>
    </vehicle>
    <vehicle id="veh_914" type="car" depart="495.09">
        <route edges="-E13 -E12 -E8 E7 E11 E13"/>
    </vehicle>
    <vehicle id="veh_313" type="car" depart="501.24">
        <route edges="-E10 E11 -E12 -E8 E7 E10"/>
    </vehicle>
    <vehicle id="veh_139" type="car" depart="503.43">
        <route edges="-E14 -E8 -E0 E4"/>
    </vehicle>
    <vehicle id="veh_874" type="car" depart="504.88">
        <route edges="-E14 E12 E13"/>
    </vehicle>
    <vehicle id="veh_911" type="car" depart="508.91">
        <route edges="-E14 -E8 E7 E10"/>
    </vehicle>
    <vehicle id="veh_375" type="car" depart="515.64">
        <route edges="-E13 -E12 -E8 E6"/>
    </vehicle>
    <vehicle id="veh_605" type="car" depart="521.59">
        <route edges="-E10 -E7 E6"/>
    </vehicle>
    <vehicle id="veh_475" type="car" depart="523.48">
        <route edges="-E14 -E8 E6"/>
    </vehicle>
    <vehicle id="veh_196" type="car" depart="529.01">
        <route edges="-E2 E3 E12 E13"/>
    </vehicle>
    <vehicle id="veh_247" type="car" depart="530.86">
        <route edges="-E10 E11 -E12 -E8 E7 E10"/>
    </vehicle>
    <vehicle id="veh_522" type="car" depart="531.01">
        <route edges="-E2 E3 E12 E13"/>
    </vehicle>
    <vehicle id="veh_403" type="car" depart="531.49">
        <route edges="-E10 -E7 E6"/>
    </vehicle>
    <vehicle id="veh_427" type="car" depart="532.84">
        <route edges="-E6 E5 -E1 E0 E6"/>
    </vehicle>
    <vehicle id="veh_141" type="car" depart="533.13">
        <route edges="-E6 E5 -E1 E0 E6"/>
    </vehicle>
    <vehicle id="veh_349" type="car" depart="533.68">
        <route edges="-E13 -E11 E10"/>
    </vehicle>
    <vehicle id="veh_1153" type="car" depart="538.10">
        <route edges="-E13 -E11 E10"/>
    </vehicle>
    <vehicle id="veh_1186" type="car" depart="539.30">
        <route edges="-E2 E3 -E8 E6"/>
    </vehicle>
    <vehicle id="veh_287" type="car" depart="540.01">
        <route edges="-E4 E0 E7 E11 E13"/>
    </vehicle>
    <vehicle id="veh_552" type="car" depart="542.24">
        <route edges="-E13 -E12 -E8 E7 E11 E13"/>
    </vehicle>
    <vehicle id="veh_680" type="car" depart="542.50">
        <route edges="-E10 E11 E13"/>
    </vehicle>
    <vehicle id="veh_628" type="car" depart="548.43">
        <route edges="-E9 E10"/>
    </vehicle>
    <vehicle id="veh_144" type="car" depart="553.49">
        <route edges="-E2 E3 -E8 E6"/>
    </vehicle>
    <vehicle id="veh_882" type="car" depart="555.56">
        <route edges="-E13 -E11 E10"/>
    </vehicle>
    <vehicle id="veh_615" type="car" depart="557.17">
        <route edges="-E6 E8 E12 E13"/>
    </vehicle>
    <vehicle id="veh_502" type="car" depart="558.45">
        <route edges="-E10 E11 E13"/>
    </vehicle>
    <vehicle id="veh_1109" type="car" depart="558.97">
        <route edges="-E4 E0 E6"/>
    </vehicle>
    <vehicle id="veh_623" type="car" depart="559.16">
        <route edges="-E9 -E7 E6"/>
    </vehicle>
    <vehicle id="veh_128" type="car" depart="559.27">
        <route edges="-E6 E5 -E1 E0 E6"/>
    </vehicle>
    <vehicle id="veh_1094" type="car" depart="559.40">
        <route edges="-E9 -E7 E6"/>
    </vehicle>
    <vehicle id="veh_690" type="car" depart="565.63">
        <route edges="-E10 E11 E13"/>
    </vehicle>
    <vehicle id="veh_507" type="car" depart="567.43">
        <route edges="-E9 E10"/>
    </vehicle>
    <vehicle id="veh_348" type="car" depart="568.93">
        <route edges="-E6 E5 -E1 E0 E6"/>
    </vehicle>
    <vehicle id="veh_1074" type="car" depart="570.02">
        <route edges="-E14 -E8 E6"/>
    </vehicle>
    <vehicle id="veh_1184" type="car" depart="576.88">
        <route edges="-E6 E5 -E1 E0 E6"/>
    </vehicle>
    <vehicle id="veh_1038" type="car" depart="578.48">
        <route edges="-E10 -E7 E6"/>
    </vehicle>
    <vehicle id="veh_165" type="car" depart="580.09">
        <route edges="-E13 -E11 E10"/>
    </vehicle>
    <vehicle id="veh_790" type="car" depart="581.62">
        <route edges="-E6 E5 E2"/>
    </vehicle>
    <vehicle id="veh_295" type="car" depart="585.48">
        <route edges="-E14 -E8 E6"/>
    </vehicle>
    <vehicle id="veh_222" type="car" depart="587.56">
        <route edges="-E10 -E7 E6"/>
    </vehicle>
    <vehicle id="veh_983" type="car" depart="588.03">
        <route edges="-E6 E8 E12 E13"/>
    </vehicle>
    <vehicle id="veh_495" type="car" depart="593.13">
        <route edges="-E9 E10"/>
    </vehicle>
    <vehicle id="veh_429" type="car" depart="593.31">
        <route edges="-E6 E5 E2"/>
    </vehicle>
    <vehicle id="veh_333" type="car" depart="595.94">
        <route edges="-E4 E0 E7 E10"/>
    </vehicle>
    <vehicle id="veh_55" type="car" depart="597.40">
        <route edges="-E2 E3 E12 E13"/>
    </vehicle>
    <vehicle id="veh_87" type="car" depart="602.82">
        <route edges="-E13 -E12 -E8 E6"/>
    </vehicle>
    <vehicle id="veh_1172" type="car" depart="603.08">
        <route edges="-E13 -E11 E10"/>
    </vehicle>
    <vehicle id="veh_1173" type="car" depart="603.89">
        <route edges="-E13 -E12 -E8 E6"/>
    </vehicle>
    <vehicle id="veh_65" type="car" depart="610.66">
        <route edges="-E14 -E8 E7 E10"/>
    </vehicle>
    <vehicle id="veh_120" type="car" depart="612.65">
        <route edges="-E9 -E7 E6"/>
    </vehicle>
    <vehicle id="veh_472" type="car" depart="613.50">
        <route edges="-E4 E0 E6"/>
    </vehicle>
    <vehicle id="veh_1047" type="car" depart="613.79">
        <route edges="-E6 E8 E12 E13"/>
    </vehicle>
    <vehicle id="veh_761" type="car" depart="615.69">
        <route edges="-E14 -E8 E7 E10"/>
    </vehicle>
    <vehicle id="veh_83" type="car" depart="617.91">
        <route edges="-E2 E3 E12 E13"/>
    </vehicle>
    <vehicle id="veh_652" type="car" depart="624.32">
        <route edges="-E4 E0 E6"/>
    </vehicle>
    <vehicle id="veh_116" type="car" depart="624.44">
        <route edges="-E4 E0 E6"/>
    </vehicle>
    <vehicle id="veh_1020" type="car" depart="627.11">
        <route edges="-E13 -E12 -E8 E6"/>
    </vehicle>
    <vehicle id="veh_619" type="car" depart="627.54">
        <route edges="-E2 E3 -E8 E6"/>
    </vehicle>
    <vehicle id="veh_275" type="car" depart="633.58">
        <route edges="-E2 E3 E12 E13"/>
    </vehicle>
    <vehicle id="veh_351" type="car" depart="634.12">
        <route edges="-E2 -E1 E0 E7 E10"/>
    </vehicle>
    <vehicle id="veh_654" type="car" depart="634.51">
        <route edges="-E9 E11 E13"/>
    </vehicle>
    <vehicle id="veh_1101" type="car" depart="639.20">
        <route edges="-E10 -E7 E6"/>
    </vehicle>
    <vehicle id="veh_407" type="car" depart="640.71">
        <route edges="-E14 -E8 E6"/>
    </vehicle>
    <vehicle id="veh_908" type="car" depart="641.93">
        <route edges="-E4 E0 E7 E11 E13"/>
    </vehicle>
    <vehicle id="veh_489" type="car" depart="643.71">
        <route edges="-E4 E0 E7 E11 E13"/>
    </vehicle>
    <vehicle id="veh_173" type="car" depart="649.94">
        <route edges="-E9 E11 E13"/>
    </vehicle>
    <vehicle id="veh_354" type="car" depart="651.00">
        <route edges="-E14 E12 E13"/>
    </vehicle>
    <vehicle id="veh_1029" type="car" depart="654.96">
        <route edges="-E6 E8 E12 E13"/>
    </vehicle>
    <vehicle id="veh_1001" type="car" depart="656.28">
        <route edges="-E2 E3 E12 E13"/>
    </vehicle>
    <vehicle id="veh_187" type="car" depart="656.60">
        <route edges="-E14 -E8 E6"/>
    </vehicle>
    <vehicle id="veh_677" type="car" depart="657.31">
        <route edges="-E4 E0 E6"/>
    </vehicle>
    <vehicle id="veh_1123" type="car" depart="661.96">
        <route edges="-E14 -E8 E6"/>
    </vehicle>
    <vehicle id="veh_1179" type="car" depart="669.44">
        <route edges="-E10 E11 E13"/>
    </vehicle>
    <vehicle id="veh_651" type="car" depart="669.79">
        <route edges="-E14 -E8 E6"/>
    </vehicle>
    <vehicle id="veh_86" type="car" depart="671.53">
        <route edges="-E6 E8 E12 E13"/>
    </vehicle>
    <vehicle id="veh_519" type="car" depart="675.08">
        <route edges="-E13 -E12 -E8 E6"/>
    </vehicle>
    <vehicle id="veh_1107" type="car" depart="683.69">
        <route edges="-E2 -E1 E0 E7 E10"/>
    </vehicle>
    <vehicle id="veh_51" type="car" depart="683.81">
        <route edges="-E9 E10"/>
    </vehicle>
    <vehicle id="veh_471" type="car" depart="685.33">
        <route edges="-E4 E0 E6"/>
    </vehicle>
    <vehicle id="veh_50" type="car" depart="687.79">
        <route edges="-E6 E8 E12 E13"/>
    </vehicle>
    <vehicle id="veh_312" type="car" depart="706.55">
        <route edges="-E9 -E7 E6"/>
    </vehicle>
    <vehicle id="veh_43" type="car" depart="711.52">
        <route edges="-E14 -E8 E6"/>
    </vehicle>
    <vehicle id="veh_419" type="car" depart="712.19">
        <route edges="-E2 E3 -E8 E6"/>
    </vehicle>
    <vehicle id="veh_862" type="car" depart="713.27">
        <route edges="-E4 E0 E6"/>
    </vehicle>
    <vehicle id="veh_322" type="car" depart="713.89">
        <route edges="-E6 E5 -E1 E0 E6"/>
    </vehicle>
    <vehicle id="veh_580" type="car" depart="716.05">
        <route edges="-E14 -E8 E6"/>
    </vehicle>
    <vehicle id="veh_212" type="car" depart="716.83">
        <route edges="-E13 -E11 E10"/>
    </vehicle>