<?xml version="1.0" encoding="UTF-8"?>

<!-- generated on 2026-06-13T16:47:50.891946+01:00 by Eclipse SUMO duarouter 1.26.0
<duarouterConfiguration xmlns:xsi="http://www.w3.org/2001/XMLSchema-instance" xsi:noNamespaceSchemaLocation="http://sumo.dlr.de/xsd/duarouterConfiguration.xsd">

    <input>
        <net-file value="C:\Users\rondo\Desktop\Sys auto projeekt\src\City_map_2\city2.net.xml"/>
        <route-files value="C:\Users\rondo\AppData\Local\Temp\city2_hard_train_3.trips.xml"/>
    </input>

    <output>
        <output-file value="C:\Users\rondo\Desktop\Sys auto projeekt\src\City_map_2\city2_hard_train_3.rou.xml"/>
    </output>

    <report>
        <no-warnings value="true"/>
        <ignore-errors value="true"/>
    </report>

    <random_number>
        <seed value="1003"/>
    </random_number>

</duarouterConfiguration>
-->

<routes xmlns:xsi="http://www.w3.org/2001/XMLSchema-instance" xsi:noNamespaceSchemaLocation="http://sumo.dlr.de/xsd/routes_file.xsd">
    <vehicle id="veh845" depart="21.77">
        <route edges="-E14 E12 E13"/>
    </vehicle>
    <vehicle id="veh1131" depart="31.45">
        <route edges="-E14 -E8 E7 E10"/>
    </vehicle>
    <vehicle id="veh328" depart="51.98">
        <route edges="-E10 E11 -E12 -E8 E7 E10"/>
    </vehicle>
    <vehicle id="veh253" depart="101.18">
        <route edges="-E10 E11 E13"/>
    </vehicle>
    <vehicle id="veh1755" depart="124.37">
        <route edges="-E10 E11 -E12 -E8 E7 E10"/>
    </vehicle>
    <vehicle id="veh1121" depart="132.44">
        <route edges="-E6 E5 -E1 E0 E6"/>
    </vehicle>
    <vehicle id="veh1081" depart="132.54">
        <route edges="-E6 E5 -E1 E0 E6"/>
    </vehicle>
    <vehicle id="veh343" depart="146.70">
        <route edges="-E10 E11 E13"/>
    </vehicle>
    <vehicle id="veh333" depart="155.71">
        <route edges="-E13 -E12 -E8 E6"/>
    </vehicle>
    <vehicle id="veh1588" depart="157.34">
        <route edges="-E9 E11 E13"/>
    </vehicle>
    <vehicle id="veh1943" depart="181.50">
        <route edges="-E6 E8 E12 E13"/>
    </vehicle>
    <vehicle id="veh850" depart="186.04">
        <route edges="-E13 -E12 -E8 E6"/>
    </vehicle>
    <vehicle id="veh255" depart="207.14">
        <route edges="-E2 -E1 E0 E7 E10"/>
    </vehicle>
    <vehicle id="veh499" depart="220.03">
        <route edges="-E14 -E8 E6"/>
    </vehicle>
    <vehicle id="veh1004" depart="224.06">
        <route edges="-E6 E7 E10"/>
    </vehicle>
    <vehicle id="veh1495" depart="227.18">
        <route edges="-E9 E11 -E12 -E8 E7 E9"/>
    </vehicle>
    <vehicle id="veh114" depart="253.83">
        <route edges="-E4 E0 E6"/>
    </vehicle>
    <vehicle id="veh121" depart="288.88">
        <route edges="-E9 -E7 E6"/>
    </vehicle>
    <vehicle id="veh1419" depart="296.06">
        <route edges="-E13 -E12 -E8 E6"/>
    </vehicle>
    <vehicle id="veh88" depart="297.65">
        <route edges="-E10 E11 -E12 -E8 E7 E10"/>
    </vehicle>
    <vehicle id="veh1600" depart="300.00">
        <route edges="-E14 -E3 E2"/>
    </vehicle>
    <vehicle id="veh1509" depart="305.64">
        <route edges="-E2 E3 E12 E13"/>
    </vehicle>
    <vehicle id="veh1437" depart="308.71">
        <route edges="-E6 -E0 E4"/>
    </vehicle>
    <vehicle id="veh1477" depart="314.54">
        <route edges="-E14 -E8 E6"/>
    </vehicle>
    <vehicle id="veh158" depart="315.85">
        <route edges="-E13 -E11 E10"/>
    </vehicle>
    <vehicle id="veh1877" depart="318.86">
        <route edges="-E4 E0 E7 E11 E13"/>
    </vehicle>
    <vehicle id="veh1136" depart="321.47">
        <route edges="-E10 -E7 E6"/>
    </vehicle>
    <vehicle id="veh1317" depart="322.10">
        <route edges="-E10 E11 -E12 -E8 E7 E10"/>
    </vehicle>
    <vehicle id="veh342" depart="322.20">
        <route edges="-E13 -E11 E10"/>
    </vehicle>
    <vehicle id="veh224" depart="332.60">
        <route edges="-E6 E8 E12 E13"/>
    </vehicle>
    <vehicle id="veh871" depart="333.48">
        <route edges="-E13 -E11 E9"/>
    </vehicle>
    <vehicle id="veh783" depart="346.79">
        <route edges="-E13 -E11 E10"/>
    </vehicle>
    <vehicle id="veh1151" depart="348.05">
        <route edges="-E2 E3 E12 E13"/>
    </vehicle>
    <vehicle id="veh1646" depart="348.20">
        <route edges="-E9 E11 E13"/>
    </vehicle>
    <vehicle id="veh641" depart="353.20">
        <route edges="-E9 E11 E13"/>
    </vehicle>
    <vehicle id="veh636" depart="354.33">
        <route edges="-E2 E3 E12 -E11 E9"/>
    </vehicle>
    <vehicle id="veh1287" depart="359.78">
        <route edges="-E2 -E1 E0 E7 E10"/>
    </vehicle>
    <vehicle id="veh1531" depart="359.86">
        <route edges="-E4 E0 E8 E14"/>
    </vehicle>
    <vehicle id="veh1861" depart="363.34">
        <route edges="-E4 E0 E6"/>
    </vehicle>
    <vehicle id="veh1296" depart="363.62">
        <route edges="-E10 -E7 E6"/>
    </vehicle>
    <vehicle id="veh1391" depart="371.07">
        <route edges="-E2 E3 -E8 E6"/>
    </vehicle>
    <vehicle id="veh959" depart="372.44">
        <route edges="-E4 E0 E5 -E1 E4"/>
    </vehicle>
    <vehicle id="veh760" depart="379.12">
        <route edges="-E4 E0 E7 E10"/>
    </vehicle>
    <vehicle id="veh1101" depart="381.78">
        <route edges="-E13 -E12 -E8 E6"/>
    </vehicle>
    <vehicle id="veh125" depart="385.27">
        <route edges="-E4 E0 E7 E11 E13"/>
    </vehicle>
    <vehicle id="veh278" depart="387.72">
        <route edges="-E2 E3 -E8 E6"/>
    </vehicle>
    <vehicle id="veh792" depart="392.45">
        <route edges="-E9 -E7 E5 E2"/>
    </vehicle>
    <vehicle id="veh931" depart="398.40">
        <route edges="-E2 E3 E12 E13"/>
    </vehicle>
    <vehicle id="veh777" depart="402.36">
        <route edges="-E10 -E7 E6"/>
    </vehicle>
    <vehicle id="veh689" depart="408.23">
        <route edges="-E10 -E7 E6"/>
    </vehicle>
    <vehicle id="veh140" depart="409.93">
        <route edges="-E13 -E12 -E8 E7 E11 E13"/>
    </vehicle>
    <vehicle id="veh1743" depart="409.93">
        <route edges="-E9 E11 E13"/>
    </vehicle>
    <vehicle id="veh418" depart="417.41">
        <route edges="-E6 E7 E9"/>
    </vehicle>
    <vehicle id="veh1830" depart="419.29">
        <route edges="-E13 -E12 -E8 E6"/>
    </vehicle>
    <vehicle id="veh1412" depart="426.08">
        <route edges="-E13 -E12 -E8 E6"/>
    </vehicle>
    <vehicle id="veh1379" depart="430.06">
        <route edges="-E14 -E8 E7 E10"/>
    </vehicle>
    <vehicle id="veh44" depart="431.48">
        <route edges="-E14 -E8 E6"/>
    </vehicle>
    <vehicle id="veh692" depart="432.54">
        <route edges="-E4 E0 E7 E11 E13"/>
    </vehicle>
    <vehicle id="veh1065" depart="432.58">
        <route edges="-E10 -E7 E6"/>
    </vehicle>
    <vehicle id="veh1048" depart="435.40">
        <route edges="-E10 E11 -E12 -E8 E7 E10"/>
    </vehicle>
    <vehicle id="veh1564" depart="438.99">
        <route edges="-E13 -E12 -E8 E7 E11 E13"/>
    </vehicle>
    <vehicle id="veh1663" depart="441.86">
        <route edges="-E13 -E11 E10"/>
    </vehicle>
    <vehicle id="veh1307" depart="442.11">
        <route edges="-E6 E7 E10"/>
    </vehicle>
    <vehicle id="veh675" depart="443.49">
        <route edges="-E9 -E7 -E0 E4"/>
    </vehicle>
    <vehicle id="veh1651" depart="449.25">
        <route edges="-E4 E0 E7 E11 E13"/>
    </vehicle>
    <vehicle id="veh1267" depart="449.28">
        <route edges="-E14 -E8 E7 E10"/>
    </vehicle>
    <vehicle id="veh1865" depart="453.98">
        <route edges="-E6 E5 -E1 E0 E6"/>
    </vehicle>
    <vehicle id="veh1587" depart="458.99">
        <route edges="-E9 E10"/>
    </vehicle>
    <vehicle id="veh232" depart="461.46">
        <route edges="-E4 E0 E6"/>
    </vehicle>
    <vehicle id="veh24" depart="464.73">
        <route edges="-E4 E0 E7 E11 E13"/>
    </vehicle>
    <vehicle id="veh1275" depart="464.80">
        <route edges="-E4 E0 E7 E10"/>
    </vehicle>
    <vehicle id="veh283" depart="471.05">
        <route edges="-E13 -E12 -E8 E6"/>
    </vehicle>
    <vehicle id="veh1735" depart="476.65">
        <route edges="-E13 -E12 -E8 E6"/>
    </vehicle>
    <vehicle id="veh997" depart="479.23">
        <route edges="-E2 E3 E14"/>
    </vehicle>
    <vehicle id="veh1238" depart="482.77">
        <route edges="-E4 E0 E7 E11 E13"/>
    </vehicle>
    <vehicle id="veh279" depart="483.50">
        <route edges="-E13 -E12 -E3 -E1 E4"/>
    </vehicle>
    <vehicle id="veh961" depart="494.86">
        <route edges="-E13 -E12 -E8 E7 E11 E13"/>
    </vehicle>
    <vehicle id="veh1067" depart="495.77">
        <route edges="-E10 E11 -E12 -E8 E7 E10"/>
    </vehicle>
    <vehicle id="veh346" depart="497.97">
        <route edges="-E9 E11 E13"/>
    </vehicle>
    <vehicle id="veh853" depart="501.67">
        <route edges="-E2 E3 -E8 E6"/>
    </vehicle>
    <vehicle id="veh728" depart="506.43">
        <route edges="-E6 E8 E12 E13"/>
    </vehicle>
    <vehicle id="veh805" depart="506.80">
        <route edges="-E14 -E8 E7 E10"/>
    </vehicle>
    <vehicle id="veh1687" depart="509.53">
        <route edges="-E14 -E8 E5 E3 E14"/>
    </vehicle>
    <vehicle id="veh230" depart="511.89">
        <route edges="-E13 -E12 -E3 -E1 E4"/>
    </vehicle>
    <vehicle id="veh648" depart="523.85">
        <route edges="-E9 E10"/>
    </vehicle>
    <vehicle id="veh1184" depart="530.99">
        <route edges="-E9 E10"/>
    </vehicle>
    <vehicle id="veh194" depart="531.97">
        <route edges="-E13 -E12 -E8 E6"/>
    </vehicle>
    <vehicle id="veh1738" depart="535.04">
        <route edges="-E9 E10"/>
    </vehicle>
    <vehicle id="veh521" depart="535.27">
        <route edges="-E2 -E1 E0 E5 E2"/>
    </vehicle>
    <vehicle id="veh1038" depart="539.29">
        <route edges="-E14 -E8 E6"/>
    </vehicle>
    <vehicle id="veh128" depart="540.01">
        <route edges="-E14 -E3 E2"/>
    </vehicle>
    <vehicle id="veh61" depart="540.98">
        <route edges="-E2 -E1 E0 E7 E10"/>
    </vehicle>
    <vehicle id="veh1188" depart="542.06">
        <route edges="-E9 -E7 E5 E2"/>
    </vehicle>
    <vehicle id="veh1786" depart="544.15">
        <route edges="-E9 -E7 E6"/>
    </vehicle>
    <vehicle id="veh1276" depart="544.18">
        <route edges="-E10 E9"/>
    </vehicle>
    <vehicle id="veh1602" depart="544.24">
        <route edges="-E4 E0 E7 E9"/>
    </vehicle>
    <vehicle id="veh1167" depart="544.91">
        <route edges="-E6 E8 E12 E13"/>
    </vehicle>
    <vehicle id="veh1963" depart="546.36">
        <route edges="-E13 -E11 E10"/>
    </vehicle>
    <vehicle id="veh1149" depart="547.07">
        <route edges="-E9 E11 E13"/>
    </vehicle>
    <vehicle id="veh571" depart="548.37">
        <route edges="-E14 E12 -E11 E9"/>
    </vehicle>
    <vehicle id="veh791" depart="551.54">
        <route edges="-E10 E11 E13"/>
    </vehicle>
    <vehicle id="veh1592" depart="554.41">
        <route edges="-E10 E11 -E12 -E8 E7 E10"/>
    </vehicle>
    <vehicle id="veh1037" depart="555.66">
        <route edges="-E2 E3 -E8 E6"/>
    </vehicle>
    <vehicle id="veh1754" depart="560.78">
        <route edges="-E6 E5 -E1 E0 E6"/>
    </vehicle>
    <vehicle id="veh1947" depart="563.92">
        <route edges="-E13 -E11 E10"/>
    </vehicle>
    <vehicle id="veh1878" depart="566.18">
        <route edges="-E10 E11 E13"/>
    </vehicle>
    <vehicle id="veh772" depart="566.34">
        <route edges="-E13 -E12 -E8 E7 E11 E13"/>
    </vehicle>
    <vehicle id="veh22" depart="566.54">
        <route edges="-E4 E0 E7 E11 E13"/>
    </vehicle>
    <vehicle id="veh1469" depart="566.59">
        <route edges="-E6 E8 E12 E13"/>
    </vehicle>
    <vehicle id="veh511" depart="566.65">
        <route edges="-E4 E0 E7 E11 E13"/>
    </vehicle>
    <vehicle id="veh1722" depart="569.51">
        <route edges="-E9 E10"/>
    </vehicle>
    <vehicle id="veh1233" depart="571.90">
        <route edges="-E9 E10"/>
    </vehicle>
    <vehicle id="veh1191" depart="572.33">
        <route edges="-E6 E8 E12 E13"/>
    </vehicle>
    <vehicle id="veh762" depart="573.72">
        <route edges="-E4 E0 E7 E11 E13"/>
    </vehicle>
    <vehicle id="veh1457" depart="574.40">
        <route edges="-E2 E3 E12 E13"/>
    </vehicle>
    <vehicle id="veh1429" depart="577.16">
        <route edges="-E2 E3 E12 E13"/>
    </vehicle>
    <vehicle id="veh670" depart="580.36">
        <route edges="-E14 -E8 E6"/>
    </vehicle>
    <vehicle id="veh1899" depart="582.60">
        <route edges="-E14 E12 E13"/>
    </vehicle>
    <vehicle id="veh1581" depart="584.36">
        <route edges="-E9 E11 E13"/>
    </vehicle>
    <vehicle id="veh1333" depart="584.44">
        <route edges="-E10 E11 -E12 -E8 E7 E10"/>
    </vehicle>
    <vehicle id="veh779" depart="585.29">
        <route edges="-E10 E9"/>
    </vehicle>
    <vehicle id="veh299" depart="586.44">
        <route edges="-E4 E0 E7 E10"/>
    </vehicle>
    <vehicle id="veh42" depart="589.52">
        <route edges="-E13 -E12 -E8 E6"/>
    </vehicle>
    <vehicle id="veh117" depart="596.01">
        <route edges="-E2 E3 E14"/>
    </vehicle>
    <vehicle id="veh506" depart="597.46">
        <route edges="-E6 E5 E2"/>
    </vehicle>
    <vehicle id="veh1286" depart="598.15">
        <route edges="-E2 E3 E12 E13"/>
    </vehicle>
    <vehicle id="veh855" depart="598.70">
        <route edges="-E4 E0 E6"/>
    </vehicle>
    <vehicle id="veh715" depart="601.72">
        <route edges="-E10 -E7 E6"/>
    </vehicle>
    <vehicle id="veh1601" depart="602.62">
        <route edges="-E9 -E7 -E0 E4"/>
    </vehicle>
    <vehicle id="veh1124" depart="602.91">
        <route edges="-E13 -E11 E10"/>
    </vehicle>
    <vehicle id="veh1957" depart="602.94">
        <route edges="-E10 E11 E13"/>
    </vehicle>
    <vehicle id="veh136" depart="607.18">
        <route edges="-E14 -E8 E7 E10"/>
    </vehicle>
    <vehicle id="veh1648" depart="612.33">
        <route edges="-E9 -E7 E6"/>
    </vehicle>
    <vehicle id="veh1565" depart="613.63">
        <route edges="-E10 -E7 E6"/>
    </vehicle>
    <vehicle id="veh46" depart="621.36">
        <route edges="-E6 E8 E12 E13"/>
    </vehicle>
    <vehicle id="veh864" depart="622.80">
        <route edges="-E10 E11 -E12 -E8 E7 E10"/>
    </vehicle>
    <vehicle id="veh1999" depart="623.53">
        <route edges="-E14 E12 E13"/>
    </vehicle>
    <vehicle id="veh1356" depart="624.05">
        <route edges="-E9 E10"/>
    </vehicle>
    <vehicle id="veh400" depart="625.76">
        <route edges="-E14 -E8 E7 E10"/>
    </vehicle>
    <vehicle id="veh1138" depart="626.48">
        <route edges="-E6 E5 -E1 E0 E6"/>
    </vehicle>
    <vehicle id="veh658" depart="627.44">
        <route edges="-E2 E3 -E8 E6"/>
    </vehicle>
    <vehicle id="veh1106" depart="628.19">
        <route edges="-E4 E0 E6"/>
    </vehicle>
    <vehicle id="veh1453" depart="628.33">
        <route edges="-E6 E8 E12 E13"/>
    </vehicle>
    <vehicle id="veh654" depart="632.86">
        <route edges="-E4 E0 E6"/>
    </vehicle>
    <vehicle id="veh614" depart="632.97">
        <route edges="-E10 -E7 E6"/>
    </vehicle>
    <vehicle id="veh738" depart="636.51">
        <route edges="-E10 -E7 E6"/>
    </vehicle>
    <vehicle id="veh423" depart="638.00">
        <route edges="-E10 E11 E13"/>
    </vehicle>
    <vehicle id="veh812" depart="639.38">
        <route edges="-E4 E0 E7 E10"/>
    </vehicle>
    <vehicle id="veh1436" depart="639.63">
        <route edges="-E13 -E12 -E3 -E1 E4"/>
    </vehicle>
    <vehicle id="veh1880" depart="643.03">
        <route edges="-E9 -E7 E6"/>
    </vehicle>
    <vehicle id="veh1158" depart="647.60">
        <route edges="-E6 E8 E12 E13"/>
    </vehicle>
    <vehicle id="veh1095" depart="650.20">
        <route edges="-E2 E3 E14"/>
    </vehicle>
    <vehicle id="veh977" depart="650.85">
        <route edges="-E9 E11 E13"/>
    </vehicle>
    <vehicle id="veh951" depart="656.56">
        <route edges="-E6 E8 E12 E13"/>
    </vehicle>
    <vehicle id="veh916" depart="656.63">
        <route edges="-E4 E0 E7 E11 E13"/>
    </vehicle>
    <vehicle id="veh1097" depart="656.70">
        <route edges="-E10 E11 E13"/>
    </vehicle>
    <vehicle id="veh1916" depart="658.42">
        <route edges="-E13 -E12 -E8 E7 E11 E13"/>
    </vehicle>
    <vehicle id="veh1644" depart="660.08">
        <route edges="-E14 E12 E13"/>
    </vehicle>
    <vehicle id="veh939" depart="660.87">
        <route edges="-E10 -E7 E6"/>
    </vehicle>
    <vehicle id="veh216" depart="662.45">
        <route edges="-E2 -E1 E0 E7 E10"/>
    </vehicle>
    <vehicle id="veh1001" depart="675.50">
        <route edges="-E14 -E8 E7 E10"/>
    </vehicle>
    <vehicle id="veh923" depart="676.02">
        <route edges="-E13 -E11 E10"/>
    </vehicle>
    <vehicle id="veh1111" depart="676.12">
        <route edges="-E14 -E8 E6"/>
    </vehicle>
    <vehicle id="veh1408" depart="677.12">
        <route edges="-E13 -E11 E10"/>
    </vehicle>
    <vehicle id="veh729" depart="677.97">
        <route edges="-E10 E11 -E12 -E8 E7 E10"/>
    </vehicle>
    <vehicle id="veh1667" depart="678.33">
        <route edges="-E6 E5 -E1 E0 E6"/>
    </vehicle>
    <vehicle id="veh84" depart="679.51">
        <route edges="-E9 E11 E13"/>
    </vehicle>
    <vehicle id="veh433" depart="680.52">
        <route edges="-E6 E7 E10"/>
    </vehicle>
    <vehicle id="veh321" depart="680.72">
        <route edges="-E14 -E8 E7 E10"/>
    </vehicle>
    <vehicle id="veh1978" depart="681.58">
        <route edges="-E14 -E3 E2"/>
    </vehicle>
    <vehicle id="veh326" depart="682.45">
        <route edges="-E2 E3 E12 E13"/>
    </vehicle>
    <vehicle id="veh922" depart="683.97">
        <route edges="-E6 E7 E10"/>
    </vehicle>
    <vehicle id="veh764" depart="685.26">
        <route edges="-E2 E3 E14"/>
    </vehicle>
    <vehicle id="veh1800" depart="685.86">
        <route edges="-E14 -E8 E7 E10"/>
    </vehicle>
    <vehicle id="veh1310" depart="687.81">
        <route edges="-E2 E3 -E8 E6"/>
    </vehicle>
    <vehicle id="veh1704" depart="687.85">
        <route edges="-E10 E11 E13"/>
    </vehicle>
    <vehicle id="veh1148" depart="692.61">
        <route edges="-E14 -E8 E6"/>
    </vehicle>
    <vehicle id="veh630" depart="695.55">
        <route edges="-E6 E5 -E1 E0 E6"/>
    </vehicle>
    <vehicle id="veh532" depart="696.72">
        <route edges="-E2 -E1 E0 E7 E10"/>
    </vehicle>
    <vehicle id="veh1253" depart="698.12">
        <route edges="-E2 E3 E12 E13"/>
    </vehicle>
    <vehicle id="veh99" depart="698.40">
        <route edges="-E10 E11 -E12 -E8 E7 E10"/>
    </vehicle>
    <vehicle id="veh1701" depart="698.43">
        <route edges="-E9 -E7 E6"/>
    </vehicle>
    <vehicle id="veh469" depart="698.64">
        <route edges="-E6 E7 E10"/>
    </vehicle>
    <vehicle id="veh437" depart="699.32">
        <route edges="-E13 -E12 -E8 E7 E11 E13"/>
    </vehicle>
    <vehicle id="veh1559" depart="700.96">
        <route edges="-E6 E8 E12 E13"/>
    </vehicle>
    <vehicle id="veh1697" depart="704.71">
        <route edges="-E4 E0 E7 E9"/>
    </vehicle>
    <vehicle id="veh1161" depart="708.83">
        <route edges="-E4 E0 E6"/>
    </vehicle>
    <vehicle id="veh815" depart="709.57">
        <route edges="-E13 -E12 E14"/>
    </vehicle>
    <vehicle id="veh1088" depart="713.75">
        <route edges="-E10 -E7 E6"/>
    </vehicle>
    <vehicle id="veh1891" depart="715.23">
        <route edges="-E6 -E0 E4"/>
    </vehicle>
    <vehicle id="veh1748" depart="715.84">
        <route edges="-E13 -E11 E10"/>
    </vehicle>
    <vehicle id="veh1250" depart="716.76">
        <route edges="-E4 E0 E7 E10"/>
    </vehicle>
    <vehicle id="veh1558" depart="717.29">
        <route edges="-E9 -E7 E6"/>
    </vehicle>
    <vehicle id="veh907" depart="717.56">
        <route edges="-E2 E3 -E8 E6"/>
    </vehicle>
    <vehicle id="veh1389" depart="717.97">
        <route edges="-E14 -E8 E6"/>
    </vehicle>
    <vehicle id="veh838" depart="718.48">
        <route edges="-E9 E11 E13"/>
    </vehicle>
    <vehicle id="veh1464" depart="720.37">
        <route edges="-E4 E0 E7 E10"/>
    </vehicle>
    <vehicle id="veh1050" depart="720.65">
        <route edges="-E9 E11 E13"/>
    </vehicle>
    <vehicle id="veh420" depart="722.80">
        <route edges="-E9 E11 E13"/>
    </vehicle>
    <vehicle id="veh1578" depart="724.54">
        <route edges="-E4 E0 E6"/>
    </vehicle>
    <vehicle id="veh1951" depart="725.26">
        <route edges="-E13 -E12 -E8 E7 E11 E13"/>
    </vehicle>
    <vehicle id="veh1514" depart="730.72">
        <route edges="-E6 E7 E10"/>
    </vehicle>
    <vehicle id="veh1417" depart="732.18">
        <route edges="-E2 E3 -E8 E6"/>
    </vehicle>
    <vehicle id="veh463" depart="732.93">
        <route edges="-E2 E3 -E8 E6"/>
    </vehicle>
    <vehicle id="veh581" depart="734.40">
        <route edges="-E10 E11 E13"/>
    </vehicle>
    <vehicle id="veh1074" depart="734.55">
        <route edges="-E14 E12 E13"/>
    </vehicle>
    <vehicle id="veh1847" depart="736.72">
        <route edges="-E6 E7 E10"/>
    </vehicle>
    <vehicle id="veh1061" depart="737.15">
        <route edges="-E9 E11 E13"/>
    </vehicle>
    <vehicle id="veh391" depart="737.47">
        <route edges="-E13 -E11 E10"/>
    </vehicle>
    <vehicle id="veh460" depart="738.61">
        <route edges="-E6 E5 -E1 E0 E6"/>
    </vehicle>
    <vehicle id="veh1711" depart="740.19">
        <route edges="-E10 E11 -E12 -E8 E7 E10"/>
    </vehicle>
    <vehicle id="veh650" depart="742.56">
        <route edges="-E2 -E1 E0 E7 E10"/>
    </vehicle>
    <vehicle id="veh53" depart="743.97">
        <route edges="-E14 -E8 E7 E10"/>
    </vehicle>
    <vehicle id="veh377" depart="745.06">
        <route edges="-E4 E0 E6"/>
    </vehicle>
    <vehicle id="veh190" depart="748.02">
        <route edges="-E4 E1 E2"/>
    </vehicle>
    <vehicle id="veh1089" depart="748.40">
        <route edges="-E2 -E1 E0 E7 E10"/>
    </vehicle>
    <vehicle id="veh191" depart="749.73">
        <route edges="-E4 E0 E7 E11 E13"/>
    </vehicle>
    <vehicle id="veh1225" depart="750.26">
        <route edges="-E9 E11 E13"/>
    </vehicle>
    <vehicle id="veh834" depart="755.90">
        <route edges="-E9 E11 E13"/>
    </vehicle>
    <vehicle id="veh259" depart="756.25">
        <route edges="-E2 -E1 E0 E7 E10"/>
    </vehicle>
    <vehicle id="veh790" depart="756.83">
        <route edges="-E14 E12 -E11 E9"/>
    </vehicle>
    <vehicle id="veh231" depart="757.49">
        <route edges="-E13 -E12 -E8 E7 E11 E13"/>
    </vehicle>
    <vehicle id="veh1810" depart="762.60">
        <route edges="-E4 E0 E7 E10"/>
    </vehicle>
    <vehicle id="veh1025" depart="763.05">
        <route edges="-E2 -E1 E0 E7 E10"/>
    </vehicle>
    <vehicle id="veh1399" depart="763.11">
        <route edges="-E2 E3 -E8 E6"/>
    </vehicle>
    <vehicle id="veh816" depart="766.05">
        <route edges="-E9 E11 E13"/>
    </vehicle>
    <vehicle id="veh572" depart="766.83">
        <route edges="-E13 -E12 E14"/>
    </vehicle>
    <vehicle id="veh545" depart="772.54">
        <route edges="-E9 E10"/>
    </vehicle>
    <vehicle id="veh1812" depart="774.89">
        <route edges="-E4 E0 E6"/>
    </vehicle>
    <vehicle id="veh1448" depart="775.48">
        <route edges="-E13 -E11 E10"/>
    </vehicle>
    <vehicle id="veh1680" depart="776.20">
        <route edges="-E14 E12 E13"/>
    </vehicle>
    <vehicle id="veh787" depart="778.16">
        <route edges="-E10 -E7 -E0 E4"/>
    </vehicle>
    <vehicle id="veh987" depart="785.40">
        <route edges="-E14 -E8 E7 E10"/>
    </vehicle>
    <vehicle id="veh1752" depart="785.80">
        <route edges="-E2 E3 -E8 E6"/>
    </vehicle>
    <vehicle id="veh1813" depart="786.05">
        <route edges="-E10 E11 E13"/>
    </vehicle>
    <vehicle id="veh778" depart="787.12">
        <route edges="-E6 E7 E10"/>
    </vehicle>
    <vehicle id="veh722" depart="788.54">
        <route edges="-E2 E3 E12 E13"/>
    </vehicle>
    <vehicle id="veh426" depart="790.86">
        <route edges="-E13 -E12 -E8 E6"/>
    </vehicle>
    <vehicle id="veh1072" depart="790.99">
        <route edges="-E9 E10"/>
    </vehicle>
    <vehicle id="veh1096" depart="791.27">
        <route edges="-E4 E0 E6"/>
    </vehicle>
    <vehicle id="veh856" depart="791.61">
        <route edges="-E6 E5 -E1 E0 E6"/>
    </vehicle>
    <vehicle id="veh619" depart="794.06">
        <route edges="-E9 E11 E13"/>
    </vehicle>
    <vehicle id="veh1212" depart="796.09">
        <route edges="-E2 -E1 E0 E7 E10"/>
    </vehicle>
    <vehicle id="veh1872" depart="797.23">
        <route edges="-E4 E0 E6"/>
    </vehicle>
    <vehicle id="veh1257" depart="801.60">
        <route edges="-E4 E0 E7 E10"/>
    </vehicle>
    <vehicle id="veh1311" depart="801.62">
        <route edges="-E6 E5 -E1 E0 E6"/>
    </vehicle>
    <vehicle id="veh1521" depart="806.83">
        <route edges="-E2 E3 E12 -E11 E9"/>
    </vehicle>
    <vehicle id="veh271" depart="807.35">
        <route edges="-E4 E0 E7 E10"/>
    </vehicle>
    <vehicle id="veh208" depart="807.55">
        <route edges="-E4 E0 E7 E10"/>
    </vehicle>
    <vehicle id="veh1774" depart="807.80">
        <route edges="-E9 E11 E13"/>
    </vehicle>
    <vehicle id="veh1127" depart="814.52">
        <route edges="-E14 E12 E13"/>
    </vehicle>
    <vehicle id="veh1172" depart="816.13">
        <route edges="-E10 E11 -E12 -E8 E7 E10"/>
    </vehicle>
    <vehicle id="veh1989" depart="818.19">
        <route edges="-E14 -E8 E7 E10"/>
    </vehicle>
    <vehicle id="veh240" depart="819.51">
        <route edges="-E4 E0 E7 E10"/>
    </vehicle>
    <vehicle id="veh1529" depart="819.56">
        <route edges="-E6 E8 E12 E13"/>
    </vehicle>
    <vehicle id="veh1327" depart="819.64">
        <route edges="-E4 E0 E7 E10"/>
    </vehicle>
    <vehicle id="veh801" depart="820.25">
        <route edges="-E2 E3 E12 -E11 E9"/>
    </vehicle>
    <vehicle id="veh981" depart="821.40">
        <route edges="-E9 E11 E13"/>
    </vehicle>
    <vehicle id="veh1397" depart="822.58">
        <route edges="-E6 E7 E9"/>
    </vehicle>
    <vehicle id="veh1377" depart="825.02">
        <route edges="-E4 E0 E5 -E1 E4"/>
    </vehicle>
    <vehicle id="veh1394" depart="825.49">
        <route edges="-E2 -E1 E0 E7 E10"/>
    </vehicle>
    <vehicle id="veh58" depart="828.65">
        <route edges="-E6 E7 E9"/>
    </vehicle>
    <vehicle id="veh700" depart="833.93">
        <route edges="-E6 E8 E12 E13"/>
    </vehicle>
    <vehicle id="veh1383" depart="835.94">
        <route edges="-E9 E10"/>
    </vehicle>
    <vehicle id="veh1125" depart="836.16">
        <route edges="-E2 -E1 E0 E7 E10"/>
    </vehicle>
    <vehicle id="veh973" depart="837.45">
        <route edges="-E14 E12 E13"/>
    </vehicle>
    <vehicle id="veh832" depart="838.97">
        <route edges="-E6 E8 E14"/>
    </vehicle>
    <vehicle id="veh513" depart="840.51">
        <route edges="-E14 E12 E13"/>
    </vehicle>
    <vehicle id="veh174" depart="840.93">
        <route edges="-E10 -E7 E6"/>
    </vehicle>
    <vehicle id="veh453" depart="844.65">
        <route edges="-E4 E0 E7 E10"/>
    </vehicle>
    <vehicle id="veh1534" depart="845.29">
        <route edges="-E10 -E7 E5 E2"/>
    </vehicle>
    <vehicle id="veh1030" depart="845.87">
        <route edges="-E6 E7 E10"/>
    </vehicle>
    <vehicle id="veh65" depart="846.38">
        <route edges="-E6 E8 E14"/>
    </vehicle>
    <vehicle id="veh1339" depart="848.33">
        <route edges="-E6 E8 E12 E13"/>
    </vehicle>
    <vehicle id="veh879" depart="848.60">
        <route edges="-E14 -E8 E6"/>
    </vehicle>
    <vehicle id="veh1616" depart="848.66">
        <route edges="-E14 -E8 E6"/>
    </vehicle>
    <vehicle id="veh1875" depart="849.35">
        <route edges="-E6 E8 E14"/>
    </vehicle>
    <vehicle id="veh1772" depart="850.08">
        <route edges="-E10 -E7 E6"/>
    </vehicle>
    <vehicle id="veh122" depart="850.49">
        <route edges="-E2 E3 E12 E13"/>
    </vehicle>
    <vehicle id="veh707" depart="855.46">
        <route edges="-E9 E11 E13"/>
    </vehicle>
    <vehicle id="veh703" depart="855.86">
        <route edges="-E2 E3 E12 E13"/>
    </vehicle>
    <vehicle id="veh1292" depart="856.64">
        <route edges="-E14 E12 E13"/>
    </vehicle>
    <vehicle id="veh1" depart="857.22">
        <route edges="-E2 E3 E12 E13"/>
    </vehicle>
    <vehicle id="veh1986" depart="857.98">
        <route edges="-E6 E5 -E1 E0 E6"/>
    </vehicle>
    <vehicle id="veh1979" depart="859.62">
        <route edges="-E10 E11 E13"/>
    </vehicle>
    <vehicle id="veh14" depart="860.07">
        <route edges="-E6 E8 E12 E13"/>
    </vehicle>
    <vehicle id="veh547" depart="864.05">
        <route edges="-E10 E11 E13"/>
    </vehicle>
    <vehicle id="veh378" depart="867.36">
        <route edges="-E9 E11 E13"/>
    </vehicle>
    <vehicle id="veh649" depart="868.46">
        <route edges="-E2 -E1 E0 E7 E10"/>
    </vehicle>
    <vehicle id="veh1881" depart="869.34">
        <route edges="-E2 E3 E14"/>
    </vehicle>
    <vehicle id="veh219" depart="870.84">
        <route edges="-E6 E5 -E1 E0 E6"/>
    </vehicle>
    <vehicle id="veh403" depart="870.87">
        <route edges="-E9 E10"/>
    </vehicle>
    <vehicle id="veh1642" depart="874.70">
        <route edges="-E9 E10"/>
    </vehicle>
    <vehicle id="veh142" depart="875.39">
        <route edges="-E14 -E8 E7 E10"/>
    </vehicle>
    <vehicle id="veh407" depart="877.69">
        <route edges="-E13 -E12 -E8 E7 E11 E13"/>
    </vehicle>
    <vehicle id="veh1971" depart="878.97">
        <route edges="-E4 E0 E7 E11 E13"/>
    </vehicle>
    <vehicle id="veh608" depart="881.60">
        <route edges="-E2 -E1 E0 E7 E10"/>
    </vehicle>
    <vehicle id="veh150" depart="883.18">
        <route edges="-E13 -E12 -E8 E6"/>
    </vehicle>
    <vehicle id="veh1112" depart="886.38">