<?xml version="1.0" encoding="UTF-8"?>

<!-- generated on 2026-06-15T16:41:06.291356+01:00 by Eclipse SUMO duarouter 1.27.0
<duarouterConfiguration xmlns:xsi="http://www.w3.org/2001/XMLSchema-instance" xsi:noNamespaceSchemaLocation="http://sumo.dlr.de/xsd/duarouterConfiguration.xsd">

    <input>
        <net-file value="C:\Users\RODO\Desktop\Sys auto - Projekt\src\City_map_2\city2.net.xml"/>
        <route-files value="C:\Users\RODO\AppData\Local\Temp\city2_train_6.trips.xml"/>
    </input>

    <output>
        <output-file value="C:\Users\RODO\Desktop\Sys auto - Projekt\src\City_map_2\city2_train_6.rou.xml"/>
    </output>

    <report>
        <no-warnings value="true"/>
        <ignore-errors value="true"/>
    </report>

    <random_number>
        <seed value="1006"/>
    </random_number>

</duarouterConfiguration>
-->

<routes xmlns:xsi="http://www.w3.org/2001/XMLSchema-instance" xsi:noNamespaceSchemaLocation="http://sumo.dlr.de/xsd/routes_file.xsd">
    <vehicle id="veh1015" depart="1.94">
        <route edges="-E10 E11 -E12 -E8 E7 E10"/>
    </vehicle>
    <vehicle id="veh747" depart="8.84">
        <route edges="-E10 E11 -E12 -E8 E7 E10"/>
    </vehicle>
    <vehicle id="veh134" depart="11.32">
        <route edges="-E10 E11 -E12 -E8 E7 E10"/>
    </vehicle>
    <vehicle id="veh268" depart="12.32">
        <route edges="-E4 E0 E6"/>
    </vehicle>
    <vehicle id="veh339" depart="16.22">
        <route edges="-E2 -E1 E0 E7 E10"/>
    </vehicle>
    <vehicle id="veh1043" depart="17.49">
        <route edges="-E4 E0 E6"/>
    </vehicle>
    <vehicle id="veh22" depart="33.53">
        <route edges="-E6 E5 E2"/>
    </vehicle>
    <vehicle id="veh409" depart="33.79">
        <route edges="-E4 E0 E6"/>
    </vehicle>
    <vehicle id="veh556" depart="33.94">
        <route edges="-E14 E12 E13"/>
    </vehicle>
    <vehicle id="veh859" depart="34.47">
        <route edges="-E9 -E7 -E0 E4"/>
    </vehicle>
    <vehicle id="veh526" depart="37.16">
        <route edges="-E9 E11 E13"/>
    </vehicle>
    <vehicle id="veh0" depart="37.18">
        <route edges="-E14 -E8 E7 E10"/>
    </vehicle>
    <vehicle id="veh630" depart="37.24">
        <route edges="-E6 -E0 E4"/>
    </vehicle>
    <vehicle id="veh779" depart="38.08">
        <route edges="-E6 E8 E12 E13"/>
    </vehicle>
    <vehicle id="veh780" depart="44.57">
        <route edges="-E2 -E1 E0 E7 E10"/>
    </vehicle>
    <vehicle id="veh1040" depart="53.36">
        <route edges="-E13 -E11 E10"/>
    </vehicle>
    <vehicle id="veh799" depart="55.40">
        <route edges="-E4 E0 E8 E14"/>
    </vehicle>
    <vehicle id="veh429" depart="58.29">
        <route edges="-E4 E0 E7 E11 E13"/>
    </vehicle>
    <vehicle id="veh609" depart="59.53">
        <route edges="-E9 -E7 E6"/>
    </vehicle>
    <vehicle id="veh1060" depart="67.79">
        <route edges="-E4 E0 E7 E10"/>
    </vehicle>
    <vehicle id="veh843" depart="68.32">
        <route edges="-E6 E5 -E1 E0 E6"/>
    </vehicle>
    <vehicle id="veh317" depart="73.54">
        <route edges="-E10 -E7 E6"/>
    </vehicle>
    <vehicle id="veh1086" depart="76.55">
        <route edges="-E13 -E11 E10"/>
    </vehicle>
    <vehicle id="veh220" depart="79.81">
        <route edges="-E14 E12 E13"/>
    </vehicle>
    <vehicle id="veh393" depart="83.69">
        <route edges="-E14 -E8 E6"/>
    </vehicle>
    <vehicle id="veh615" depart="87.08">
        <route edges="-E13 -E11 E10"/>
    </vehicle>
    <vehicle id="veh1120" depart="88.47">
        <route edges="-E14 -E8 E6"/>
    </vehicle>
    <vehicle id="veh675" depart="89.92">
        <route edges="-E14 -E8 E6"/>
    </vehicle>
    <vehicle id="veh216" depart="90.86">
        <route edges="-E4 E0 E7 E9"/>
    </vehicle>
    <vehicle id="veh645" depart="100.00">
        <route edges="-E14 -E8 E7 E10"/>
    </vehicle>
    <vehicle id="veh683" depart="100.50">
        <route edges="-E14 E12 E13"/>
    </vehicle>
    <vehicle id="veh833" depart="105.21">
        <route edges="-E9 E11 E13"/>
    </vehicle>
    <vehicle id="veh148" depart="105.75">
        <route edges="-E6 -E0 E4"/>
    </vehicle>
    <vehicle id="veh47" depart="106.20">
        <route edges="-E6 E7 E10"/>
    </vehicle>
    <vehicle id="veh514" depart="116.82">
        <route edges="-E6 -E0 E4"/>
    </vehicle>
    <vehicle id="veh5" depart="120.33">
        <route edges="-E9 E10"/>
    </vehicle>
    <vehicle id="veh677" depart="121.37">
        <route edges="-E9 -E7 E5 E2"/>
    </vehicle>
    <vehicle id="veh594" depart="127.03">
        <route edges="-E2 E3 E12 E13"/>
    </vehicle>
    <vehicle id="veh672" depart="130.41">
        <route edges="-E13 -E11 E10"/>
    </vehicle>
    <vehicle id="veh150" depart="133.21">
        <route edges="-E14 -E8 E6"/>
    </vehicle>
    <vehicle id="veh1155" depart="133.46">
        <route edges="-E14 E12 E13"/>
    </vehicle>
    <vehicle id="veh813" depart="135.35">
        <route edges="-E6 E7 E10"/>
    </vehicle>
    <vehicle id="veh128" depart="137.83">
        <route edges="-E2 E3 -E8 E6"/>
    </vehicle>
    <vehicle id="veh803" depart="138.37">
        <route edges="-E13 -E11 E10"/>
    </vehicle>
    <vehicle id="veh508" depart="142.59">
        <route edges="-E2 -E1 E0 E7 E10"/>
    </vehicle>
    <vehicle id="veh723" depart="151.22">
        <route edges="-E13 -E11 E10"/>
    </vehicle>
    <vehicle id="veh911" depart="151.99">
        <route edges="-E13 -E12 -E8 E7 E11 E13"/>
    </vehicle>
    <vehicle id="veh663" depart="152.94">
        <route edges="-E13 -E12 -E8 E6"/>
    </vehicle>
    <vehicle id="veh36" depart="153.37">
        <route edges="-E13 -E12 -E8 E7 E11 E13"/>
    </vehicle>
    <vehicle id="veh26" depart="157.29">
        <route edges="-E9 -E7 E6"/>
    </vehicle>
    <vehicle id="veh983" depart="157.75">
        <route edges="-E2 E3 -E8 E6"/>
    </vehicle>
    <vehicle id="veh1194" depart="159.59">
        <route edges="-E14 -E8 E5 E3 E14"/>
    </vehicle>
    <vehicle id="veh890" depart="160.87">
        <route edges="-E6 E7 E10"/>
    </vehicle>
    <vehicle id="veh237" depart="162.94">
        <route edges="-E4 E0 E6"/>
    </vehicle>
    <vehicle id="veh961" depart="165.97">
        <route edges="-E14 E12 -E11 E9"/>
    </vehicle>
    <vehicle id="veh46" depart="167.25">
        <route edges="-E2 -E1 E4"/>
    </vehicle>
    <vehicle id="veh1023" depart="169.46">
        <route edges="-E9 E10"/>
    </vehicle>
    <vehicle id="veh708" depart="172.40">
        <route edges="-E14 -E8 E5 E3 E14"/>
    </vehicle>
    <vehicle id="veh1175" depart="175.01">
        <route edges="-E14 -E8 E6"/>
    </vehicle>
    <vehicle id="veh406" depart="187.48">
        <route edges="-E13 -E12 -E8 E6"/>
    </vehicle>
    <vehicle id="veh1036" depart="193.36">
        <route edges="-E9 E10"/>
    </vehicle>
    <vehicle id="veh12" depart="195.02">
        <route edges="-E10 -E7 -E0 E4"/>
    </vehicle>
    <vehicle id="veh63" depart="202.36">
        <route edges="-E2 E3 E12 E13"/>
    </vehicle>
    <vehicle id="veh867" depart="204.93">
        <route edges="-E6 E8 E12 E13"/>
    </vehicle>
    <vehicle id="veh756" depart="205.64">
        <route edges="-E14 -E8 E7 E10"/>
    </vehicle>
    <vehicle id="veh1006" depart="205.74">
        <route edges="-E4 E0 E7 E11 E13"/>
    </vehicle>
    <vehicle id="veh871" depart="206.27">
        <route edges="-E2 -E1 E0 E7 E10"/>
    </vehicle>
    <vehicle id="veh934" depart="207.14">
        <route edges="-E4 E0 E7 E10"/>
    </vehicle>
    <vehicle id="veh1110" depart="207.40">
        <route edges="-E9 E10"/>
    </vehicle>
    <vehicle id="veh277" depart="209.05">
        <route edges="-E13 -E12 -E3 E2"/>
    </vehicle>
    <vehicle id="veh701" depart="210.23">
        <route edges="-E6 -E0 E4"/>
    </vehicle>
    <vehicle id="veh943" depart="210.40">
        <route edges="-E4 E0 E7 E11 E13"/>
    </vehicle>
    <vehicle id="veh664" depart="211.92">
        <route edges="-E2 E3 E12 E13"/>
    </vehicle>
    <vehicle id="veh668" depart="212.28">
        <route edges="-E14 -E3 E2"/>
    </vehicle>
    <vehicle id="veh58" depart="218.30">
        <route edges="-E10 -E7 E6"/>
    </vehicle>
    <vehicle id="veh769" depart="219.12">
        <route edges="-E4 E1 E2"/>
    </vehicle>
    <vehicle id="veh276" depart="222.38">
        <route edges="-E10 E11 -E12 -E8 E7 E10"/>
    </vehicle>
    <vehicle id="veh628" depart="225.77">
        <route edges="-E10 E11 -E12 -E8 E7 E10"/>
    </vehicle>
    <vehicle id="veh790" depart="226.15">
        <route edges="-E2 E3 E12 E13"/>
    </vehicle>
    <vehicle id="veh982" depart="227.70">
        <route edges="-E13 -E12 E14"/>
    </vehicle>
    <vehicle id="veh866" depart="229.65">
        <route edges="-E10 E11 E13"/>
    </vehicle>
    <vehicle id="veh437" depart="231.90">
        <route edges="-E14 -E8 E7 E10"/>
    </vehicle>
    <vehicle id="veh1166" depart="233.37">
        <route edges="-E6 E8 E14"/>
    </vehicle>
    <vehicle id="veh735" depart="234.62">
        <route edges="-E4 E1 E2"/>
    </vehicle>
    <vehicle id="veh433" depart="236.24">
        <route edges="-E6 E8 E12 E13"/>
    </vehicle>
    <vehicle id="veh201" depart="236.88">
        <route edges="-E6 E7 E10"/>
    </vehicle>
    <vehicle id="veh1095" depart="239.91">
        <route edges="-E14 -E8 -E0 E4"/>
    </vehicle>
    <vehicle id="veh270" depart="239.97">
        <route edges="-E13 -E11 E10"/>
    </vehicle>
    <vehicle id="veh1013" depart="240.05">
        <route edges="-E2 -E1 E4"/>
    </vehicle>
    <vehicle id="veh484" depart="240.46">
        <route edges="-E14 E12 E13"/>
    </vehicle>
    <vehicle id="veh1105" depart="241.23">
        <route edges="-E6 -E0 E4"/>
    </vehicle>
    <vehicle id="veh452" depart="242.56">
        <route edges="-E9 -E7 E6"/>
    </vehicle>
    <vehicle id="veh991" depart="248.84">
        <route edges="-E13 -E11 E10"/>
    </vehicle>
    <vehicle id="veh736" depart="252.82">
        <route edges="-E6 E8 E14"/>
    </vehicle>
    <vehicle id="veh24" depart="255.14">
        <route edges="-E13 -E12 -E8 E6"/>
    </vehicle>
    <vehicle id="veh72" depart="258.20">
        <route edges="-E13 -E12 -E8 E7 E11 E13"/>
    </vehicle>
    <vehicle id="veh1016" depart="258.92">
        <route edges="-E10 E11 -E12 -E8 E7 E10"/>
    </vehicle>
    <vehicle id="veh729" depart="261.43">
        <route edges="-E13 -E12 -E8 E7 E11 E13"/>
    </vehicle>
    <vehicle id="veh450" depart="262.23">
        <route edges="-E13 -E12 -E3 -E1 E4"/>
    </vehicle>
    <vehicle id="veh825" depart="262.44">
        <route edges="-E10 -E7 E8 E14"/>
    </vehicle>
    <vehicle id="veh640" depart="263.37">
        <route edges="-E2 E3 -E8 E6"/>
    </vehicle>
    <vehicle id="veh54" depart="268.29">
        <route edges="-E13 -E11 E10"/>
    </vehicle>
    <vehicle id="veh44" depart="268.60">
        <route edges="-E4 E0 E7 E9"/>
    </vehicle>
    <vehicle id="veh861" depart="271.48">
        <route edges="-E13 -E11 E9"/>
    </vehicle>
    <vehicle id="veh543" depart="272.86">
        <route edges="-E9 E11 E13"/>
    </vehicle>
    <vehicle id="veh1078" depart="275.84">
        <route edges="-E13 -E11 E10"/>
    </vehicle>
    <vehicle id="veh325" depart="276.79">
        <route edges="-E14 E12 E13"/>
    </vehicle>
    <vehicle id="veh6" depart="280.56">
        <route edges="-E9 -E7 E6"/>
    </vehicle>
    <vehicle id="veh888" depart="283.83">
        <route edges="-E10 -E7 E6"/>
    </vehicle>
    <vehicle id="veh742" depart="284.11">
        <route edges="-E6 E8 E12 E13"/>
    </vehicle>
    <vehicle id="veh829" depart="285.92">
        <route edges="-E4 E0 E7 E10"/>
    </vehicle>
    <vehicle id="veh204" depart="286.70">
        <route edges="-E10 E11 E13"/>
    </vehicle>
    <vehicle id="veh1064" depart="287.78">
        <route edges="-E13 -E12 -E8 E6"/>
    </vehicle>
    <vehicle id="veh165" depart="287.98">
        <route edges="-E2 E3 -E8 E6"/>
    </vehicle>
    <vehicle id="veh516" depart="291.09">
        <route edges="-E2 E3 -E8 E6"/>
    </vehicle>
    <vehicle id="veh945" depart="298.94">
        <route edges="-E2 E3 E12 E13"/>
    </vehicle>
    <vehicle id="veh264" depart="301.71">
        <route edges="-E2 -E1 E0 E5 E2"/>
    </vehicle>
    <vehicle id="veh682" depart="302.68">
        <route edges="-E10 E11 -E12 -E8 E7 E10"/>
    </vehicle>
    <vehicle id="veh788" depart="306.35">
        <route edges="-E10 -E7 -E0 E4"/>
    </vehicle>
    <vehicle id="veh902" depart="309.57">
        <route edges="-E4 E0 E7 E9"/>
    </vehicle>
    <vehicle id="veh898" depart="311.76">
        <route edges="-E6 E5 E2"/>
    </vehicle>
    <vehicle id="veh802" depart="317.05">
        <route edges="-E9 E11 E13"/>
    </vehicle>
    <vehicle id="veh8" depart="319.41">
        <route edges="-E2 -E1 E0 E7 E10"/>
    </vehicle>
    <vehicle id="veh822" depart="321.98">
        <route edges="-E4 E0 E7 E11 E13"/>
    </vehicle>
    <vehicle id="veh132" depart="322.55">
        <route edges="-E10 E11 -E12 -E8 E7 E10"/>
    </vehicle>
    <vehicle id="veh552" depart="329.33">
        <route edges="-E2 E3 E14"/>
    </vehicle>
    <vehicle id="veh998" depart="330.88">
        <route edges="-E4 E0 E5 -E1 E4"/>
    </vehicle>
    <vehicle id="veh386" depart="332.40">
        <route edges="-E10 E11 E13"/>
    </vehicle>
    <vehicle id="veh996" depart="333.16">
        <route edges="-E4 E0 E7 E10"/>
    </vehicle>
    <vehicle id="veh525" depart="333.24">
        <route edges="-E2 E3 E12 E13"/>
    </vehicle>
    <vehicle id="veh392" depart="337.07">
        <route edges="-E9 -E7 E6"/>
    </vehicle>
    <vehicle id="veh597" depart="337.75">
        <route edges="-E6 E8 E14"/>
    </vehicle>
    <vehicle id="veh1092" depart="339.46">
        <route edges="-E10 E11 -E12 -E8 E7 E10"/>
    </vehicle>
    <vehicle id="veh1132" depart="339.78">
        <route edges="-E10 -E7 E6"/>
    </vehicle>
    <vehicle id="veh311" depart="341.45">
        <route edges="-E9 E10"/>
    </vehicle>
    <vehicle id="veh1073" depart="341.78">
        <route edges="-E14 -E8 -E0 E4"/>
    </vehicle>
    <vehicle id="veh486" depart="344.12">
        <route edges="-E13 -E12 -E8 E6"/>
    </vehicle>
    <vehicle id="veh495" depart="344.64">
        <route edges="-E13 -E12 -E8 E6"/>
    </vehicle>
    <vehicle id="veh901" depart="348.60">
        <route edges="-E4 E0 E7 E10"/>
    </vehicle>
    <vehicle id="veh652" depart="350.79">
        <route edges="-E4 E0 E7 E11 E13"/>
    </vehicle>
    <vehicle id="veh252" depart="353.05">
        <route edges="-E2 E3 -E8 E6"/>
    </vehicle>
    <vehicle id="veh345" depart="354.97">
        <route edges="-E6 E7 E10"/>
    </vehicle>
    <vehicle id="veh451" depart="355.65">
        <route edges="-E13 -E12 -E8 E6"/>
    </vehicle>
    <vehicle id="veh1118" depart="360.40">
        <route edges="-E4 E0 E8 E14"/>
    </vehicle>
    <vehicle id="veh883" depart="361.32">
        <route edges="-E2 E3 E12 -E11 E9"/>
    </vehicle>
    <vehicle id="veh344" depart="364.01">
        <route edges="-E14 -E8 E7 E10"/>
    </vehicle>
    <vehicle id="veh947" depart="365.38">
        <route edges="-E9 E11 -E12 E14"/>
    </vehicle>
    <vehicle id="veh857" depart="370.05">
        <route edges="-E13 -E11 E10"/>
    </vehicle>
    <vehicle id="veh772" depart="372.19">
        <route edges="-E13 -E11 E10"/>
    </vehicle>
    <vehicle id="veh842" depart="377.61">
        <route edges="-E10 -E7 E6"/>
    </vehicle>
    <vehicle id="veh731" depart="378.76">
        <route edges="-E14 -E8 E6"/>
    </vehicle>
    <vehicle id="veh648" depart="379.02">
        <route edges="-E9 E10"/>
    </vehicle>
    <vehicle id="veh1020" depart="381.62">
        <route edges="-E4 E1 E2"/>
    </vehicle>
    <vehicle id="veh557" depart="382.41">
        <route edges="-E2 E3 E12 E13"/>
    </vehicle>
    <vehicle id="veh195" depart="382.76">
        <route edges="-E13 -E12 -E8 E6"/>
    </vehicle>
    <vehicle id="veh13" depart="388.00">
        <route edges="-E9 -E7 E6"/>
    </vehicle>
    <vehicle id="veh1018" depart="388.66">
        <route edges="-E14 E12 -E11 E9"/>
    </vehicle>
    <vehicle id="veh959" depart="391.19">
        <route edges="-E9 E11 E13"/>
    </vehicle>
    <vehicle id="veh933" depart="393.48">
        <route edges="-E13 -E11 E10"/>
    </vehicle>
    <vehicle id="veh96" depart="396.23">
        <route edges="-E2 E3 E12 -E11 E9"/>
    </vehicle>
    <vehicle id="veh586" depart="403.24">
        <route edges="-E6 E8 E12 E13"/>
    </vehicle>
    <vehicle id="veh423" depart="404.83">
        <route edges="-E10 E11 -E12 -E8 E7 E10"/>
    </vehicle>
    <vehicle id="veh1001" depart="405.83">
        <route edges="-E10 E11 E13"/>
    </vehicle>
    <vehicle id="veh978" depart="412.76">
        <route edges="-E14 -E8 E5 E3 E14"/>
    </vehicle>
    <vehicle id="veh403" depart="416.13">
        <route edges="-E10 -E7 E6"/>
    </vehicle>
    <vehicle id="veh1098" depart="416.26">
        <route edges="-E14 -E3 E2"/>
    </vehicle>
    <vehicle id="veh727" depart="419.48">
        <route edges="-E6 E8 E12 E13"/>
    </vehicle>
    <vehicle id="veh107" depart="425.65">
        <route edges="-E2 -E1 E0 E7 E10"/>
    </vehicle>
    <vehicle id="veh651" depart="426.67">
        <route edges="-E10 E11 -E12 -E8 E7 E10"/>
    </vehicle>
    <vehicle id="veh267" depart="427.49">
        <route edges="-E4 E0 E8 E14"/>
    </vehicle>
    <vehicle id="veh913" depart="428.81">
        <route edges="-E10 -E7 E6"/>
    </vehicle>
    <vehicle id="veh16" depart="429.25">
        <route edges="-E9 E10"/>
    </vehicle>
    <vehicle id="veh371" depart="429.45">
        <route edges="-E10 -E7 E6"/>
    </vehicle>
    <vehicle id="veh208" depart="433.22">
        <route edges="-E10 E11 -E12 -E8 E7 E10"/>
    </vehicle>
    <vehicle id="veh629" depart="437.08">
        <route edges="-E10 -E7 E8 E14"/>
    </vehicle>
    <vehicle id="veh249" depart="439.94">
        <route edges="-E10 E11 -E12 -E8 E7 E10"/>
    </vehicle>
    <vehicle id="veh428" depart="443.45">
        <route edges="-E6 E8 E12 E13"/>
    </vehicle>
    <vehicle id="veh375" depart="444.48">
        <route edges="-E6 E8 E12 E13"/>
    </vehicle>
    <vehicle id="veh1054" depart="449.09">
        <route edges="-E6 E5 -E1 E0 E6"/>
    </vehicle>
    <vehicle id="veh51" depart="452.34">
        <route edges="-E14 -E8 E6"/>
    </vehicle>
    <vehicle id="veh657" depart="454.95">
        <route edges="-E10 E11 -E12 -E8 E7 E10"/>
    </vehicle>
    <vehicle id="veh1176" depart="455.56">
        <route edges="-E10 -E7 E6"/>
    </vehicle>
    <vehicle id="veh611" depart="455.93">
        <route edges="-E4 E0 E7 E11 E13"/>
    </vehicle>
    <vehicle id="veh55" depart="459.73">
        <route edges="-E14 E12 E13"/>
    </vehicle>
    <vehicle id="veh607" depart="460.74">
        <route edges="-E4 E0 E7 E11 E13"/>
    </vehicle>
    <vehicle id="veh1049" depart="461.31">
        <route edges="-E6 E8 E14"/>
    </vehicle>
    <vehicle id="veh819" depart="462.60">
        <route edges="-E10 E11 -E12 -E8 E7 E10"/>
    </vehicle>
    <vehicle id="veh443" depart="469.55">
        <route edges="-E4 E0 E6"/>
    </vehicle>
    <vehicle id="veh884" depart="472.66">
        <route edges="-E2 E3 -E8 E6"/>
    </vehicle>
    <vehicle id="veh1081" depart="475.48">
        <route edges="-E4 E0 E7 E10"/>
    </vehicle>
    <vehicle id="veh661" depart="483.47">
        <route edges="-E2 -E1 E0 E7 E10"/>
    </vehicle>
    <vehicle id="veh798" depart="486.44">
        <route edges="-E4 E0 E7 E9"/>
    </vehicle>
    <vehicle id="veh254" depart="487.49">
        <route edges="-E2 -E1 E0 E7 E10"/>
    </vehicle>
    <vehicle id="veh1170" depart="488.65">
        <route edges="-E2 E3 E12 E13"/>
    </vehicle>
    <vehicle id="veh87" depart="497.79">
        <route edges="-E10 -E7 E8 E14"/>
    </vehicle>
    <vehicle id="veh1012" depart="498.27">
        <route edges="-E14 -E8 E5 E3 E14"/>
    </vehicle>
    <vehicle id="veh139" depart="498.44">
        <route edges="-E2 E3 -E8 E6"/>
    </vehicle>
    <vehicle id="veh1157" depart="507.53">
        <route edges="-E9 -E7 E6"/>
    </vehicle>
    <vehicle id="veh721" depart="507.75">
        <route edges="-E9 -E7 E6"/>
    </vehicle>
    <vehicle id="veh38" depart="507.79">
        <route edges="-E9 E10"/>
    </vehicle>
    <vehicle id="veh70" depart="507.88">
        <route edges="-E9 E11 E13"/>
    </vehicle>
    <vehicle id="veh810" depart="512.47">
        <route edges="-E10 -E7 E6"/>
    </vehicle>
    <vehicle id="veh885" depart="514.67">
        <route edges="-E6 E8 E14"/>
    </vehicle>
    <vehicle id="veh602" depart="516.34">
        <route edges="-E10 -E7 E5 E2"/>
    </vehicle>
    <vehicle id="veh34" depart="519.30">
        <route edges="-E9 E11 -E12 E14"/>
    </vehicle>
    <vehicle id="veh328" depart="522.41">
        <route edges="-E4 E0 E6"/>
    </vehicle>
    <vehicle id="veh584" depart="524.42">
        <route edges="-E13 -E11 E10"/>
    </vehicle>
    <vehicle id="veh617" depart="531.71">
        <route edges="-E2 E3 -E8 E6"/>
    </vehicle>
    <vehicle id="veh338" depart="532.19">
        <route edges="-E2 E3 -E8 E6"/>
    </vehicle>
    <vehicle id="veh815" depart="534.45">
        <route edges="-E9 -E7 E5 E2"/>
    </vehicle>
    <vehicle id="veh814" depart="538.86">
        <route edges="-E13 -E12 -E8 E7 E11 E13"/>
    </vehicle>
    <vehicle id="veh248" depart="540.88">
        <route edges="-E6 E5 -E1 E0 E6"/>
    </vehicle>
    <vehicle id="veh858" depart="542.03">
        <route edges="-E6 E7 E10"/>
    </vehicle>
    <vehicle id="veh97" depart="543.45">
        <route edges="-E9 E10"/>
    </vehicle>
    <vehicle id="veh363" depart="547.63">
        <route edges="-E2 -E1 E0 E7 E10"/>
    </vehicle>
    <vehicle id="veh30" depart="548.85">
        <route edges="-E10 -E7 E6"/>
    </vehicle>
    <vehicle id="veh622" depart="555.76">
        <route edges="-E6 E8 E12 E13"/>
    </vehicle>
    <vehicle id="veh356" depart="557.47">
        <route edges="-E9 E10"/>
    </vehicle>
    <vehicle id="veh144" depart="560.05">
        <route edges="-E4 E0 E8 E14"/>
    </vehicle>
    <vehicle id="veh886" depart="561.00">
        <route edges="-E10 -E7 E6"/>
    </vehicle>
    <vehicle id="veh835" depart="564.43">
        <route edges="-E10 E11 -E12 -E8 E7 E10"/>
    </vehicle>
    <vehicle id="veh397" depart="564.47">
        <route edges="-E6 E5 E2"/>
    </vehicle>
    <vehicle id="veh805" depart="565.82">
        <route edges="-E4 E0 E7 E11 E13"/>
    </vehicle>
    <vehicle id="veh415" depart="565.83">
        <route edges="-E14 E12 -E11 E9"/>
    </vehicle>
    <vehicle id="veh488" depart="567.39">
        <route edges="-E6 E7 E10"/>
    </vehicle>
    <vehicle id="veh894" depart="570.14">
        <route edges="-E9 E11 -E12 E14"/>
    </vehicle>
    <vehicle id="veh37" depart="571.23">
        <route edges="-E6 E5 -E1 E0 E6"/>
    </vehicle>
    <vehicle id="veh42" depart="573.26">
        <route edges="-E13 -E11 E10"/>
    </vehicle>
    <vehicle id="veh306" depart="578.13">
        <route edges="-E10 -E7 E5 E2"/>
    </vehicle>
    <vehicle id="veh410" depart="581.26">
        <route edges="-E13 -E12 -E8 E6"/>
    </vehicle>
    <vehicle id="veh394" depart="582.74">
        <route edges="-E4 E0 E6"/>
    </vehicle>
    <vehicle id="veh1195" depart="584.73">
        <route edges="-E9 E10"/>
    </vehicle>
    <vehicle id="veh1116" depart="595.01">
        <route edges="-E9 E10"/>
    </vehicle>
    <vehicle id="veh580" depart="596.21">
        <route edges="-E13 -E11 E9"/>
    </vehicle>
    <vehicle id="veh1151" depart="599.53">
        <route edges="-E4 E0 E6"/>
    </vehicle>
    <vehicle id="veh792" depart="600.32">
        <route edges="-E4 E0 E7 E11 E13"/>
    </vehicle>
    <vehicle id="veh653" depart="600.54">
        <route edges="-E10 -E7 E6"/>
    </vehicle>
    <vehicle id="veh1072" depart="600.94">
        <route edges="-E10 -E7 E6"/>
    </vehicle>
    <vehicle id="veh995" depart="603.03">
        <route edges="-E10 E11 -E12 -E8 E7 E10"/>
    </vehicle>
    <vehicle id="veh230" depart="606.93">
        <route edges="-E10 E11 E13"/>
    </vehicle>
    <vehicle id="veh517" depart="607.98">
        <route edges="-E2 -E1 E0 E7 E10"/>
    </vehicle>
    <vehicle id="veh310" depart="608.84">
        <route edges="-E10 E11 E13"/>
    </vehicle>
    <vehicle id="veh974" depart="610.04">
        <route edges="-E4 E0 E8 E14"/>
    </vehicle>
    <vehicle id="veh937" depart="611.77">
        <route edges="-E4 E0 E7 E11 E13"/>
    </vehicle>
    <vehicle id="veh693" depart="613.33">
        <route edges="-E10 E9"/>
    </vehicle>
    <vehicle id="veh706" depart="630.22">
        <route edges="-E13 -E11 E10"/>
    </vehicle>
    <vehicle id="veh240" depart="630.87">
        <route edges="-E6 E8 E12 E13"/>
    </vehicle>
    <vehicle id="veh217" depart="631.30">
        <route edges="-E10 E11 E13"/>
    </vehicle>
    <vehicle id="veh458" depart="633.26">
        <route edges="-E6 E7 E10"/>
    </vehicle>
    <vehicle id="veh977" depart="633.70">
        <route edges="-E13 -E12 -E8 E6"/>
    </vehicle>
    <vehicle id="veh154" depart="639.13">
        <route edges="-E9 E11 E13"/>
    </vehicle>
    <vehicle id="veh766" depart="643.21">
        <route edges="-E6 E7 E10"/>
    </vehicle>
    <vehicle id="veh133" depart="643.44">
        <route edges="-E9 E11 E13"/>
    </vehicle>
    <vehicle id="veh541" depart="643.45">
        <route edges="-E6 -E0 E4"/>
    </vehicle>
    <vehicle id="veh1088" depart="644.05">
        <route edges="-E9 -E7 E6"/>
    </vehicle>
    <vehicle id="veh98" depart="647.38">
        <route edges="-E6 E8 E12 E13"/>
    </vehicle>
    <vehicle id="veh692" depart="649.51">
        <route edges="-E13 -E12 -E8 E7 E11 E13"/>
    </vehicle>
    <vehicle id="veh378" depart="653.95">
        <route edges="-E6 E7 E10"/>
    </vehicle>
    <vehicle id="veh158" depart="661.50">
        <route edges="-E9 E11 E13"/>
    </vehicle>
    <vehicle id="veh968" depart="664.39">
        <route edges="-E10 E11 -E12 -E8 E7 E10"/>
    </vehicle>
    <vehicle id="veh1074" depart="665.89">
        <route edges="-E9 -E7 E5 E2"/>
    </vehicle>
    <vehicle id="veh203" depart="666.90">
        <route edges="-E9 E11 E13"/>
    </vehicle>
    <vehicle id="veh20" depart="666.98">
        <route edges="-E10 E11 E13"/>
    </vehicle>
    <vehicle id="veh1150" depart="668.15">
        <route edges="-E10 -E7 E6"/>
    </vehicle>
    <vehicle id="veh828" depart="674.00">
        <route edges="-E2 E3 -E8 E6"/>
    </vehicle>
    <vehicle id="veh1185" depart="674.22">
        <route edges="-E2 -E1 E0 E7 E10"/>
    </vehicle>
    <vehicle id="veh988" depart="679.43">
        <route edges="-E10 E11 -E12 -E8 E7 E10"/>
    </vehicle>
    <vehicle id="veh942" depart="680.30">
        <route edges="-E14 -E8 E7 E10"/>
    </vehicle>
    <vehicle id="veh674" depart="680.33">
        <route edges="-E4 E0 E6"/>
    </vehicle>
    <vehicle id="veh255" depart="681.05">
        <route edges="-E6 E7 E10"/>
    </vehicle>
    <vehicle id="veh659" depart="686.06">
        <route edges="-E6 E5 -E1 E0 E6"/>
    </vehicle>
    <vehicle id="veh555" depart="687.53">
        <route edges="-E13 -E12 -E3 E2"/>
    </vehicle>
    <vehicle id="veh644" depart="689.55">
        <route edges="-E2 E3 -E8 E6"/>
    </vehicle>
    <vehicle id="veh308" depart="690.05">
        <route edges="-E2 -E1 E0 E7 E10"/>
    </vehicle>
    <vehicle id="veh1077" depart="691.95">
        <route edges="-E2 E3 E12 E13"/>
    </vehicle>
    <vehicle id="veh1094" depart="694.02">
        <route edges="-E13 -E12 E14"/>
    </vehicle>
    <vehicle id="veh501" depart="695.96">
        <route edges="-E6 E7 E10"/>
    </vehicle>
    <vehicle id="veh1168" depart="697.33">
        <route edges="-E2 E3 E14"/>
    </vehicle>
    <vehicle id="veh632" depart="698.08">
        <route edges="-E6 E8 E12 E13"/>
    </vehicle>
    <vehicle id="veh104" depart="701.01">
        <route edges="-E14 -E3 E2"/>
    </vehicle>
    <vehicle id="veh1124" depart="701.12">
        <route edges="-E13 -E12 -E8 E6"/>
    </vehicle>
    <vehicle id="veh626" depart="701.87">
        <route edges="-E14 -E8 E7 E10"/>
    </vehicle>
    <vehicle id="veh696" depart="704.24">
        <route edges="-E6 E7 E10"/>
    </vehicle>
    <vehicle id="veh816" depart="705.81">
        <route edges="-E13 -E12 -E8 E7 E11 E13"/>
    </vehicle>
    <vehicle id="veh650" depart="711.47">
        <route edges="-E9 -E7 E6"/>
    </vehicle>
    <vehicle id="veh619" depart="716.90">
        <route edges="-E14 E12 -E11 E9"/>
    </vehicle>
    <vehicle id="veh1162" depart="717.08">
        <route edges="-E2 E3 E12 E13"/>
    </vehicle>
    <vehicle id="veh654" depart="717.74">
        <route edges="-E2 E3 -E8 E6"/>
    </vehicle>
    <vehicle id="veh354" depart="718.90">
        <route edges="-E14 -E8 E7 E10"/>
    </vehicle>
    <vehicle id="veh1032" depart="723.82">
        <route edges="-E10 -E7 E8 E14"/>
    </vehicle>
    <vehicle id="veh497" depart="724.75">
        <route edges="-E9 E11 E13"/>
    </vehicle>
    <vehicle id="veh1163" depart="733.50">
        <route edges="-E4 E0 E7 E10"/>
    </vehicle>
    <vehicle id="veh1026" depart="738.42">
        <route edges="-E10 E11 E13"/>
    </vehicle>
    <vehicle id="veh84" depart="741.04">
        <route edges="-E9 E11 E13"/>
    </vehicle>
    <vehicle id="veh147" depart="744.27">
        <route edges="-E9 E11 E13"/>
    </vehicle>
    <vehicle id="veh476" depart="745.04">
        <route edges="-E13 -E12 -E8 E6"/>
    </vehicle>
    <vehicle id="veh773" depart="750.91">
        <route edges="-E9 -E7 E6"/>
    </vehicle>
    <vehicle id="veh389" depart="757.50">
        <route edges="-E6 E8 E12 E13"/>
    </vehicle>
    <vehicle id="veh31" depart="758.67">
        <route edges="-E9 E10"/>
    </vehicle>
    <vehicle id="veh576" depart="765.87">
        <route edges="-E13 -E12 -E8 E7 E11 E13"/>
    </vehicle>