<?xml version="1.0" encoding="UTF-8"?>

<!-- generated on 2026-06-15T16:41:05.664346+01:00 by Eclipse SUMO duarouter 1.27.0
<duarouterConfiguration xmlns:xsi="http://www.w3.org/2001/XMLSchema-instance" xsi:noNamespaceSchemaLocation="http://sumo.dlr.de/xsd/duarouterConfiguration.xsd">

    <input>
        <net-file value="C:\Users\RODO\Desktop\Sys auto - Projekt\src\City_map_2\city2.net.xml"/>
        <route-files value="C:\Users\RODO\AppData\Local\Temp\city2_train_2.trips.xml"/>
    </input>

    <output>
        <output-file value="C:\Users\RODO\Desktop\Sys auto - Projekt\src\City_map_2\city2_train_2.rou.xml"/>
    </output>

    <report>
        <no-warnings value="true"/>
        <ignore-errors value="true"/>
    </report>

    <random_number>
        <seed value="1002"/>
    </random_number>

</duarouterConfiguration>
-->

<routes xmlns:xsi="http://www.w3.org/2001/XMLSchema-instance" xsi:noNamespaceSchemaLocation="http://sumo.dlr.de/xsd/routes_file.xsd">
    <vehicle id="veh866" depart="0.16">
        <route edges="-E6 E7 E10"/>
    </vehicle>
    <vehicle id="veh1176" depart="3.24">
        <route edges="-E9 -E7 E6"/>
    </vehicle>
    <vehicle id="veh1031" depart="4.64">
        <route edges="-E2 -E1 E0 E7 E10"/>
    </vehicle>
    <vehicle id="veh1162" depart="7.34">
        <route edges="-E14 -E8 E6"/>
    </vehicle>
    <vehicle id="veh324" depart="8.79">
        <route edges="-E9 E11 E13"/>
    </vehicle>
    <vehicle id="veh496" depart="10.99">
        <route edges="-E10 E11 E13"/>
    </vehicle>
    <vehicle id="veh952" depart="11.61">
        <route edges="-E10 -E7 E6"/>
    </vehicle>
    <vehicle id="veh709" depart="18.31">
        <route edges="-E2 -E1 E0 E5 E2"/>
    </vehicle>
    <vehicle id="veh182" depart="27.74">
        <route edges="-E10 -E7 -E0 E4"/>
    </vehicle>
    <vehicle id="veh598" depart="30.49">
        <route edges="-E14 -E8 E6"/>
    </vehicle>
    <vehicle id="veh16" depart="30.67">
        <route edges="-E10 -E7 E6"/>
    </vehicle>
    <vehicle id="veh1012" depart="33.08">
        <route edges="-E13 -E12 -E8 E7 E11 E13"/>
    </vehicle>
    <vehicle id="veh852" depart="38.90">
        <route edges="-E10 -E7 E6"/>
    </vehicle>
    <vehicle id="veh526" depart="45.20">
        <route edges="-E6 E8 E12 E13"/>
    </vehicle>
    <vehicle id="veh365" depart="45.65">
        <route edges="-E2 E3 -E8 E6"/>
    </vehicle>
    <vehicle id="veh344" depart="46.96">
        <route edges="-E10 E11 E13"/>
    </vehicle>
    <vehicle id="veh802" depart="49.38">
        <route edges="-E6 E8 E12 E13"/>
    </vehicle>
    <vehicle id="veh48" depart="56.37">
        <route edges="-E13 -E12 -E8 E6"/>
    </vehicle>
    <vehicle id="veh100" depart="63.86">
        <route edges="-E6 E5 -E1 E0 E6"/>
    </vehicle>
    <vehicle id="veh652" depart="65.14">
        <route edges="-E9 -E7 E6"/>
    </vehicle>
    <vehicle id="veh550" depart="66.51">
        <route edges="-E9 E11 -E12 -E8 E7 E9"/>
    </vehicle>
    <vehicle id="veh951" depart="68.82">
        <route edges="-E9 -E7 E6"/>
    </vehicle>
    <vehicle id="veh491" depart="68.97">
        <route edges="-E10 E11 E13"/>
    </vehicle>
    <vehicle id="veh1095" depart="70.28">
        <route edges="-E13 -E12 -E3 -E1 E4"/>
    </vehicle>
    <vehicle id="veh601" depart="70.63">
        <route edges="-E13 -E11 E10"/>
    </vehicle>
    <vehicle id="veh37" depart="76.37">
        <route edges="-E2 E3 -E8 E6"/>
    </vehicle>
    <vehicle id="veh349" depart="76.70">
        <route edges="-E4 E0 E7 E11 E13"/>
    </vehicle>
    <vehicle id="veh930" depart="87.48">
        <route edges="-E4 E0 E6"/>
    </vehicle>
    <vehicle id="veh33" depart="89.41">
        <route edges="-E6 -E0 E4"/>
    </vehicle>
    <vehicle id="veh679" depart="90.97">
        <route edges="-E14 -E8 E7 E10"/>
    </vehicle>
    <vehicle id="veh569" depart="93.44">
        <route edges="-E13 -E12 E14"/>
    </vehicle>
    <vehicle id="veh771" depart="98.34">
        <route edges="-E10 E11 -E12 -E8 E7 E10"/>
    </vehicle>
    <vehicle id="veh269" depart="99.01">
        <route edges="-E10 -E7 E6"/>
    </vehicle>
    <vehicle id="veh790" depart="100.74">
        <route edges="-E13 -E11 E10"/>
    </vehicle>
    <vehicle id="veh216" depart="100.89">
        <route edges="-E2 E3 -E8 E6"/>
    </vehicle>
    <vehicle id="veh96" depart="101.52">
        <route edges="-E13 -E11 E10"/>
    </vehicle>
    <vehicle id="veh398" depart="102.40">
        <route edges="-E14 -E3 E2"/>
    </vehicle>
    <vehicle id="veh481" depart="116.07">
        <route edges="-E13 -E12 -E8 E7 E11 E13"/>
    </vehicle>
    <vehicle id="veh750" depart="122.87">
        <route edges="-E10 -E7 E6"/>
    </vehicle>
    <vehicle id="veh1175" depart="123.32">
        <route edges="-E2 -E1 E0 E7 E10"/>
    </vehicle>
    <vehicle id="veh728" depart="124.84">
        <route edges="-E6 E7 E10"/>
    </vehicle>
    <vehicle id="veh186" depart="124.86">
        <route edges="-E9 E11 -E12 E14"/>
    </vehicle>
    <vehicle id="veh581" depart="132.75">
        <route edges="-E6 E8 E12 E13"/>
    </vehicle>
    <vehicle id="veh844" depart="133.96">
        <route edges="-E9 -E7 E6"/>
    </vehicle>
    <vehicle id="veh718" depart="135.01">
        <route edges="-E13 -E12 -E8 E6"/>
    </vehicle>
    <vehicle id="veh376" depart="138.53">
        <route edges="-E13 -E12 -E8 E6"/>
    </vehicle>
    <vehicle id="veh508" depart="139.20">
        <route edges="-E6 E7 E10"/>
    </vehicle>
    <vehicle id="veh548" depart="149.88">
        <route edges="-E14 -E8 E7 E10"/>
    </vehicle>
    <vehicle id="veh151" depart="152.13">
        <route edges="-E4 E0 E7 E11 E13"/>
    </vehicle>
    <vehicle id="veh812" depart="154.36">
        <route edges="-E2 -E1 E0 E7 E10"/>
    </vehicle>
    <vehicle id="veh745" depart="154.93">
        <route edges="-E13 -E12 -E8 E7 E11 E13"/>
    </vehicle>
    <vehicle id="veh1009" depart="155.70">
        <route edges="-E10 -E7 E6"/>
    </vehicle>
    <vehicle id="veh1032" depart="164.92">
        <route edges="-E14 -E8 E7 E10"/>
    </vehicle>
    <vehicle id="veh859" depart="169.74">
        <route edges="-E6 E7 E10"/>
    </vehicle>
    <vehicle id="veh519" depart="177.33">
        <route edges="-E6 E5 -E1 E0 E6"/>
    </vehicle>
    <vehicle id="veh455" depart="177.52">
        <route edges="-E6 E5 -E1 E0 E6"/>
    </vehicle>
    <vehicle id="veh1140" depart="179.34">
        <route edges="-E6 E5 -E1 E0 E6"/>
    </vehicle>
    <vehicle id="veh448" depart="179.87">
        <route edges="-E10 E11 E13"/>
    </vehicle>
    <vehicle id="veh1037" depart="180.05">
        <route edges="-E13 -E11 E10"/>
    </vehicle>
    <vehicle id="veh231" depart="181.40">
        <route edges="-E9 E10"/>
    </vehicle>
    <vehicle id="veh900" depart="181.77">
        <route edges="-E9 E10"/>
    </vehicle>
    <vehicle id="veh56" depart="183.07">
        <route edges="-E6 E7 E10"/>
    </vehicle>
    <vehicle id="veh14" depart="185.05">
        <route edges="-E2 E3 -E8 E6"/>
    </vehicle>
    <vehicle id="veh147" depart="189.47">
        <route edges="-E14 -E8 -E0 E4"/>
    </vehicle>
    <vehicle id="veh893" depart="192.90">
        <route edges="-E6 E8 E12 E13"/>
    </vehicle>
    <vehicle id="veh850" depart="195.81">
        <route edges="-E6 E8 E14"/>
    </vehicle>
    <vehicle id="veh535" depart="197.28">
        <route edges="-E6 E8 E12 E13"/>
    </vehicle>
    <vehicle id="veh262" depart="198.01">
        <route edges="-E13 -E12 -E8 E6"/>
    </vehicle>
    <vehicle id="veh563" depart="199.11">
        <route edges="-E13 -E12 -E8 E7 E11 E13"/>
    </vehicle>
    <vehicle id="veh542" depart="203.34">
        <route edges="-E2 E3 -E8 E6"/>
    </vehicle>
    <vehicle id="veh831" depart="203.69">
        <route edges="-E14 -E8 -E0 E4"/>
    </vehicle>
    <vehicle id="veh988" depart="204.88">
        <route edges="-E6 E8 E12 E13"/>
    </vehicle>
    <vehicle id="veh215" depart="208.79">
        <route edges="-E4 E1 E2"/>
    </vehicle>
    <vehicle id="veh428" depart="210.20">
        <route edges="-E10 E11 -E12 -E8 E7 E10"/>
    </vehicle>
    <vehicle id="veh1058" depart="213.28">
        <route edges="-E4 E0 E7 E10"/>
    </vehicle>
    <vehicle id="veh470" depart="215.70">
        <route edges="-E13 -E12 -E8 E6"/>
    </vehicle>
    <vehicle id="veh275" depart="218.78">
        <route edges="-E14 E12 E13"/>
    </vehicle>
    <vehicle id="veh778" depart="222.04">
        <route edges="-E14 -E8 -E0 E4"/>
    </vehicle>
    <vehicle id="veh325" depart="226.11">
        <route edges="-E9 E10"/>
    </vehicle>
    <vehicle id="veh825" depart="228.79">
        <route edges="-E2 E3 E12 E13"/>
    </vehicle>
    <vehicle id="veh697" depart="228.88">
        <route edges="-E6 E8 E12 E13"/>
    </vehicle>
    <vehicle id="veh736" depart="234.32">
        <route edges="-E6 E8 E12 E13"/>
    </vehicle>
    <vehicle id="veh683" depart="235.33">
        <route edges="-E10 -E7 E6"/>
    </vehicle>
    <vehicle id="veh532" depart="236.00">
        <route edges="-E9 -E7 E6"/>
    </vehicle>
    <vehicle id="veh533" depart="249.25">
        <route edges="-E4 E0 E6"/>
    </vehicle>
    <vehicle id="veh972" depart="253.23">
        <route edges="-E4 E0 E7 E11 E13"/>
    </vehicle>
    <vehicle id="veh549" depart="254.21">
        <route edges="-E9 E11 E13"/>
    </vehicle>
    <vehicle id="veh724" depart="255.56">
        <route edges="-E10 E11 -E12 -E8 E7 E10"/>
    </vehicle>
    <vehicle id="veh849" depart="255.82">
        <route edges="-E6 E5 -E1 E0 E6"/>
    </vehicle>
    <vehicle id="veh495" depart="256.77">
        <route edges="-E13 -E11 E10"/>
    </vehicle>
    <vehicle id="veh1079" depart="257.08">
        <route edges="-E4 E0 E6"/>
    </vehicle>
    <vehicle id="veh572" depart="258.27">
        <route edges="-E4 E0 E7 E10"/>
    </vehicle>
    <vehicle id="veh454" depart="262.32">
        <route edges="-E9 -E7 E6"/>
    </vehicle>
    <vehicle id="veh35" depart="262.45">
        <route edges="-E14 E12 -E11 E9"/>
    </vehicle>
    <vehicle id="veh968" depart="262.97">
        <route edges="-E14 E12 E13"/>
    </vehicle>
    <vehicle id="veh523" depart="266.44">
        <route edges="-E6 E7 E10"/>
    </vehicle>
    <vehicle id="veh466" depart="271.24">
        <route edges="-E9 E11 E13"/>
    </vehicle>
    <vehicle id="veh768" depart="276.88">
        <route edges="-E13 -E12 -E3 E2"/>
    </vehicle>
    <vehicle id="veh160" depart="280.23">
        <route edges="-E6 E8 E12 E13"/>
    </vehicle>
    <vehicle id="veh830" depart="281.76">
        <route edges="-E14 E12 -E11 E9"/>
    </vehicle>
    <vehicle id="veh782" depart="282.14">
        <route edges="-E14 E12 -E11 E9"/>
    </vehicle>
    <vehicle id="veh1138" depart="284.35">
        <route edges="-E14 -E8 E7 E10"/>
    </vehicle>
    <vehicle id="veh472" depart="289.42">
        <route edges="-E2 E3 -E8 E6"/>
    </vehicle>
    <vehicle id="veh390" depart="294.18">
        <route edges="-E9 E10"/>
    </vehicle>
    <vehicle id="veh239" depart="303.73">
        <route edges="-E14 -E3 E2"/>
    </vehicle>
    <vehicle id="veh584" depart="308.09">
        <route edges="-E4 E0 E7 E10"/>
    </vehicle>
    <vehicle id="veh998" depart="313.44">
        <route edges="-E6 -E0 E4"/>
    </vehicle>
    <vehicle id="veh368" depart="315.71">
        <route edges="-E14 -E3 E2"/>
    </vehicle>
    <vehicle id="veh604" depart="317.28">
        <route edges="-E2 -E1 E0 E7 E10"/>
    </vehicle>
    <vehicle id="veh169" depart="329.13">
        <route edges="-E6 E8 E12 E13"/>
    </vehicle>
    <vehicle id="veh539" depart="333.09">
        <route edges="-E14 -E8 E7 E10"/>
    </vehicle>
    <vehicle id="veh1026" depart="339.44">
        <route edges="-E6 E7 E9"/>
    </vehicle>
    <vehicle id="veh298" depart="343.23">
        <route edges="-E13 -E12 -E8 E6"/>
    </vehicle>
    <vehicle id="veh973" depart="344.25">
        <route edges="-E2 E3 E12 -E11 E9"/>
    </vehicle>
    <vehicle id="veh1169" depart="346.01">
        <route edges="-E14 -E3 E2"/>
    </vehicle>
    <vehicle id="veh1043" depart="347.38">
        <route edges="-E14 E12 -E11 E9"/>
    </vehicle>
    <vehicle id="veh214" depart="349.89">
        <route edges="-E2 E3 -E8 E6"/>
    </vehicle>
    <vehicle id="veh755" depart="355.24">
        <route edges="-E13 -E12 -E8 E6"/>
    </vehicle>
    <vehicle id="veh103" depart="360.36">
        <route edges="-E6 E5 -E1 E0 E6"/>
    </vehicle>
    <vehicle id="veh369" depart="362.84">
        <route edges="-E6 E8 E12 E13"/>
    </vehicle>
    <vehicle id="veh1006" depart="367.75">
        <route edges="-E13 -E12 E14"/>
    </vehicle>
    <vehicle id="veh1127" depart="374.20">
        <route edges="-E10 E11 -E12 -E8 E7 E10"/>
    </vehicle>
    <vehicle id="veh1020" depart="374.43">
        <route edges="-E4 E0 E7 E11 E13"/>
    </vehicle>
    <vehicle id="veh955" depart="374.48">
        <route edges="-E10 -E7 E6"/>
    </vehicle>
    <vehicle id="veh220" depart="374.57">
        <route edges="-E13 -E12 -E8 E6"/>
    </vehicle>
    <vehicle id="veh67" depart="377.74">
        <route edges="-E13 -E12 -E8 E6"/>
    </vehicle>
    <vehicle id="veh613" depart="379.16">
        <route edges="-E2 -E1 E4"/>
    </vehicle>
    <vehicle id="veh577" depart="379.34">
        <route edges="-E2 E3 E12 -E11 E9"/>
    </vehicle>
    <vehicle id="veh45" depart="385.16">
        <route edges="-E2 -E1 E4"/>
    </vehicle>
    <vehicle id="veh247" depart="386.21">
        <route edges="-E14 -E8 E6"/>
    </vehicle>
    <vehicle id="veh285" depart="387.60">
        <route edges="-E6 E5 E2"/>
    </vehicle>
    <vehicle id="veh222" depart="388.35">
        <route edges="-E13 -E12 -E8 E6"/>
    </vehicle>
    <vehicle id="veh1147" depart="388.83">
        <route edges="-E14 -E8 E7 E10"/>
    </vehicle>
    <vehicle id="veh661" depart="389.83">
        <route edges="-E4 E0 E7 E10"/>
    </vehicle>
    <vehicle id="veh897" depart="392.24">
        <route edges="-E13 -E11 E10"/>
    </vehicle>
    <vehicle id="veh191" depart="399.86">
        <route edges="-E13 -E12 E14"/>
    </vehicle>
    <vehicle id="veh835" depart="399.99">
        <route edges="-E13 -E12 -E8 E6"/>
    </vehicle>
    <vehicle id="veh1170" depart="403.94">
        <route edges="-E6 E5 -E1 E0 E6"/>
    </vehicle>
    <vehicle id="veh281" depart="404.01">
        <route edges="-E10 -E7 E6"/>
    </vehicle>
    <vehicle id="veh1088" depart="405.70">
        <route edges="-E2 -E1 E0 E7 E10"/>
    </vehicle>
    <vehicle id="veh1072" depart="407.27">
        <route edges="-E10 -E7 E6"/>
    </vehicle>
    <vehicle id="veh299" depart="410.44">
        <route edges="-E13 -E11 E10"/>
    </vehicle>
    <vehicle id="veh594" depart="410.79">
        <route edges="-E2 E3 -E8 E6"/>
    </vehicle>
    <vehicle id="veh459" depart="411.73">
        <route edges="-E10 E11 -E12 -E8 E7 E10"/>
    </vehicle>
    <vehicle id="veh221" depart="413.36">
        <route edges="-E13 -E12 -E8 E6"/>
    </vehicle>
    <vehicle id="veh1160" depart="413.73">
        <route edges="-E14 E12 -E11 E9"/>
    </vehicle>
    <vehicle id="veh105" depart="414.82">
        <route edges="-E10 -E7 E8 E14"/>
    </vehicle>
    <vehicle id="veh691" depart="417.87">
        <route edges="-E10 E11 E13"/>
    </vehicle>
    <vehicle id="veh945" depart="422.85">
        <route edges="-E13 -E12 -E3 -E1 E4"/>
    </vehicle>
    <vehicle id="veh982" depart="424.31">
        <route edges="-E2 E3 E12 E13"/>
    </vehicle>
    <vehicle id="veh839" depart="425.71">
        <route edges="-E9 -E7 E6"/>
    </vehicle>
    <vehicle id="veh0" depart="431.40">
        <route edges="-E4 E0 E6"/>
    </vehicle>
    <vehicle id="veh760" depart="433.85">
        <route edges="-E9 E10"/>
    </vehicle>
    <vehicle id="veh406" depart="434.23">
        <route edges="-E6 E5 -E1 E0 E6"/>
    </vehicle>
    <vehicle id="veh429" depart="437.19">
        <route edges="-E4 E0 E7 E11 E13"/>
    </vehicle>
    <vehicle id="veh555" depart="438.35">
        <route edges="-E6 E7 E10"/>
    </vehicle>
    <vehicle id="veh433" depart="443.38">
        <route edges="-E4 E0 E7 E10"/>
    </vehicle>
    <vehicle id="veh919" depart="445.51">
        <route edges="-E6 E8 E12 E13"/>
    </vehicle>
    <vehicle id="veh596" depart="446.86">
        <route edges="-E4 E0 E7 E10"/>
    </vehicle>
    <vehicle id="veh1152" depart="453.40">
        <route edges="-E2 -E1 E0 E7 E10"/>
    </vehicle>
    <vehicle id="veh333" depart="463.06">
        <route edges="-E13 -E12 -E8 E6"/>
    </vehicle>
    <vehicle id="veh600" depart="463.56">
        <route edges="-E4 E0 E7 E11 E13"/>
    </vehicle>
    <vehicle id="veh71" depart="465.76">
        <route edges="-E4 E0 E7 E11 E13"/>
    </vehicle>
    <vehicle id="veh965" depart="471.07">
        <route edges="-E4 E0 E7 E11 E13"/>
    </vehicle>
    <vehicle id="veh872" depart="471.58">
        <route edges="-E10 -E7 E6"/>
    </vehicle>
    <vehicle id="veh300" depart="472.38">
        <route edges="-E10 -E7 E6"/>
    </vehicle>
    <vehicle id="veh586" depart="475.57">
        <route edges="-E9 E11 E13"/>
    </vehicle>
    <vehicle id="veh386" depart="475.97">
        <route edges="-E13 -E12 E14"/>
    </vehicle>
    <vehicle id="veh1007" depart="478.80">
        <route edges="-E4 E0 E7 E11 E13"/>
    </vehicle>
    <vehicle id="veh264" depart="479.27">
        <route edges="-E10 -E7 E5 E2"/>
    </vehicle>
    <vehicle id="veh436" depart="480.13">
        <route edges="-E6 E8 E12 E13"/>
    </vehicle>
    <vehicle id="veh1086" depart="480.46">
        <route edges="-E9 E11 -E12 E14"/>
    </vehicle>
    <vehicle id="veh1093" depart="482.43">
        <route edges="-E2 E3 -E8 E6"/>
    </vehicle>
    <vehicle id="veh1172" depart="485.04">
        <route edges="-E10 -E7 E6"/>
    </vehicle>
    <vehicle id="veh651" depart="487.30">
        <route edges="-E14 E12 E13"/>
    </vehicle>
    <vehicle id="veh793" depart="500.51">
        <route edges="-E6 E7 E10"/>
    </vehicle>
    <vehicle id="veh329" depart="502.75">
        <route edges="-E9 -E7 E6"/>
    </vehicle>
    <vehicle id="veh753" depart="502.82">
        <route edges="-E6 E8 E12 E13"/>
    </vehicle>
    <vehicle id="veh1019" depart="508.78">
        <route edges="-E13 -E11 E9"/>
    </vehicle>
    <vehicle id="veh166" depart="510.68">
        <route edges="-E14 -E3 E2"/>
    </vehicle>
    <vehicle id="veh483" depart="513.57">
        <route edges="-E6 E5 -E1 E0 E6"/>
    </vehicle>
    <vehicle id="veh72" depart="514.40">
        <route edges="-E9 E11 E13"/>
    </vehicle>
    <vehicle id="veh719" depart="515.80">
        <route edges="-E6 E5 -E1 E0 E6"/>
    </vehicle>
    <vehicle id="veh144" depart="526.16">
        <route edges="-E4 E0 E6"/>
    </vehicle>
    <vehicle id="veh639" depart="526.31">
        <route edges="-E4 E0 E7 E11 E13"/>
    </vehicle>
    <vehicle id="veh342" depart="530.29">
        <route edges="-E14 E12 E13"/>
    </vehicle>
    <vehicle id="veh311" depart="531.89">
        <route edges="-E10 E11 E13"/>
    </vehicle>
    <vehicle id="veh648" depart="532.78">
        <route edges="-E10 -E7 E8 E14"/>
    </vehicle>
    <vehicle id="veh36" depart="533.95">
        <route edges="-E13 -E11 E10"/>
    </vehicle>
    <vehicle id="veh538" depart="535.47">
        <route edges="-E13 -E12 E14"/>
    </vehicle>
    <vehicle id="veh558" depart="537.74">
        <route edges="-E4 E0 E6"/>
    </vehicle>
    <vehicle id="veh1107" depart="539.79">
        <route edges="-E13 -E11 E10"/>
    </vehicle>
    <vehicle id="veh926" depart="541.74">
        <route edges="-E10 -E7 E5 E2"/>
    </vehicle>
    <vehicle id="veh583" depart="543.10">
        <route edges="-E4 E0 E7 E11 E13"/>
    </vehicle>
    <vehicle id="veh969" depart="543.77">
        <route edges="-E10 -E7 E8 E14"/>
    </vehicle>
    <vehicle id="veh848" depart="545.80">
        <route edges="-E14 -E8 -E0 E4"/>
    </vehicle>
    <vehicle id="veh385" depart="548.71">
        <route edges="-E9 -E7 -E0 E4"/>
    </vehicle>
    <vehicle id="veh763" depart="549.55">
        <route edges="-E13 -E11 E10"/>
    </vehicle>
    <vehicle id="veh617" depart="549.84">
        <route edges="-E10 E11 E13"/>
    </vehicle>
    <vehicle id="veh978" depart="550.01">
        <route edges="-E9 E10"/>
    </vehicle>
    <vehicle id="veh1179" depart="552.76">
        <route edges="-E13 -E12 -E8 E7 E11 E13"/>
    </vehicle>
    <vehicle id="veh670" depart="553.73">
        <route edges="-E6 E5 -E1 E0 E6"/>
    </vehicle>
    <vehicle id="veh126" depart="556.12">
        <route edges="-E14 -E8 E6"/>
    </vehicle>
    <vehicle id="veh232" depart="556.88">
        <route edges="-E10 -E7 E5 E2"/>
    </vehicle>
    <vehicle id="veh775" depart="565.89">
        <route edges="-E6 E8 E12 E13"/>
    </vehicle>
    <vehicle id="veh634" depart="570.11">
        <route edges="-E14 -E8 E7 E10"/>
    </vehicle>
    <vehicle id="veh612" depart="570.75">
        <route edges="-E6 E5 -E1 E0 E6"/>
    </vehicle>
    <vehicle id="veh174" depart="577.21">
        <route edges="-E13 -E12 -E8 E6"/>
    </vehicle>
    <vehicle id="veh1099" depart="579.36">
        <route edges="-E9 E11 E13"/>
    </vehicle>
    <vehicle id="veh781" depart="580.16">
        <route edges="-E10 E11 E13"/>
    </vehicle>
    <vehicle id="veh26" depart="580.77">
        <route edges="-E9 -E7 E6"/>
    </vehicle>
    <vehicle id="veh927" depart="580.86">
        <route edges="-E4 E0 E5 -E1 E4"/>
    </vehicle>
    <vehicle id="veh188" depart="585.28">
        <route edges="-E9 E10"/>
    </vehicle>
    <vehicle id="veh1124" depart="587.44">
        <route edges="-E4 E0 E7 E11 E13"/>
    </vehicle>
    <vehicle id="veh875" depart="595.22">
        <route edges="-E9 -E7 E6"/>
    </vehicle>
    <vehicle id="veh888" depart="597.58">
        <route edges="-E10 E11 E13"/>
    </vehicle>
    <vehicle id="veh595" depart="597.60">
        <route edges="-E14 E12 E13"/>
    </vehicle>
    <vehicle id="veh564" depart="601.33">
        <route edges="-E14 -E8 E6"/>
    </vehicle>
    <vehicle id="veh1116" depart="605.98">
        <route edges="-E13 -E11 E9"/>
    </vehicle>
    <vehicle id="veh327" depart="610.13">
        <route edges="-E2 E3 E14"/>
    </vehicle>
    <vehicle id="veh1190" depart="611.66">
        <route edges="-E2 E3 -E8 E6"/>
    </vehicle>
    <vehicle id="veh772" depart="612.81">
        <route edges="-E4 E1 E2"/>
    </vehicle>
    <vehicle id="veh401" depart="612.83">
        <route edges="-E13 -E11 E10"/>
    </vehicle>
    <vehicle id="veh1038" depart="614.71">
        <route edges="-E2 -E1 E0 E5 E2"/>
    </vehicle>
    <vehicle id="veh447" depart="615.55">
        <route edges="-E13 -E12 -E8 E7 E11 E13"/>
    </vehicle>
    <vehicle id="veh1082" depart="616.74">
        <route edges="-E13 -E12 -E8 E6"/>
    </vehicle>
    <vehicle id="veh444" depart="617.35">
        <route edges="-E9 E11 -E12 -E8 E7 E9"/>
    </vehicle>
    <vehicle id="veh1011" depart="619.30">
        <route edges="-E6 E8 E14"/>
    </vehicle>
    <vehicle id="veh954" depart="625.18">
        <route edges="-E4 E0 E6"/>
    </vehicle>
    <vehicle id="veh1015" depart="628.71">
        <route edges="-E4 E0 E7 E11 E13"/>
    </vehicle>
    <vehicle id="veh997" depart="634.80">
        <route edges="-E9 E11 E13"/>
    </vehicle>
    <vehicle id="veh490" depart="648.96">
        <route edges="-E14 -E8 -E0 E4"/>
    </vehicle>
    <vehicle id="veh561" depart="653.80">
        <route edges="-E14 -E8 E7 E10"/>
    </vehicle>
    <vehicle id="veh475" depart="657.71">
        <route edges="-E6 E7 E10"/>
    </vehicle>
    <vehicle id="veh935" depart="660.96">
        <route edges="-E4 E0 E6"/>
    </vehicle>
    <vehicle id="veh531" depart="664.81">
        <route edges="-E13 -E12 -E8 E6"/>
    </vehicle>
    <vehicle id="veh981" depart="670.30">
        <route edges="-E6 E8 E12 E13"/>
    </vehicle>
    <vehicle id="veh494" depart="671.62">
        <route edges="-E6 E8 E14"/>
    </vehicle>
    <vehicle id="veh520" depart="671.80">
        <route edges="-E2 E3 E12 E13"/>
    </vehicle>
    <vehicle id="veh957" depart="675.41">
        <route edges="-E2 -E1 E0 E5 E2"/>
    </vehicle>
    <vehicle id="veh506" depart="677.04">
        <route edges="-E14 E12 E13"/>
    </vehicle>
    <vehicle id="veh990" depart="677.80">
        <route edges="-E13 -E12 -E8 E7 E11 E13"/>
    </vehicle>
    <vehicle id="veh29" depart="678.62">
        <route edges="-E2 E3 -E8 E6"/>
    </vehicle>
    <vehicle id="veh950" depart="678.77">
        <route edges="-E6 -E0 E4"/>
    </vehicle>
    <vehicle id="veh387" depart="682.22">
        <route edges="-E6 E7 E10"/>
    </vehicle>
    <vehicle id="veh205" depart="682.28">
        <route edges="-E10 E11 E13"/>
    </vehicle>
    <vehicle id="veh1109" depart="687.00">
        <route edges="-E2 -E1 E0 E7 E10"/>
    </vehicle>
    <vehicle id="veh412" depart="693.12">
        <route edges="-E4 E0 E6"/>
    </vehicle>
    <vehicle id="veh271" depart="693.48">
        <route edges="-E4 E0 E6"/>
    </vehicle>
    <vehicle id="veh212" depart="695.02">
        <route edges="-E10 E11 E13"/>
    </vehicle>
    <vehicle id="veh121" depart="697.52">
        <route edges="-E14 -E8 -E0 E4"/>
    </vehicle>
    <vehicle id="veh877" depart="697.87">
        <route edges="-E4 E0 E7 E10"/>
    </vehicle>
    <vehicle id="veh1180" depart="698.11">
        <route edges="-E14 E12 E13"/>
    </vehicle>
    <vehicle id="veh620" depart="700.11">
        <route edges="-E13 -E12 E14"/>
    </vehicle>
    <vehicle id="veh1029" depart="701.14">
        <route edges="-E10 E11 -E12 -E8 E7 E10"/>
    </vehicle>
    <vehicle id="veh522" depart="705.99">
        <route edges="-E2 E3 -E8 E6"/>
    </vehicle>
    <vehicle id="veh1075" depart="714.02">
        <route edges="-E2 E3 E12 -E11 E9"/>
    </vehicle>
    <vehicle id="veh40" depart="714.25">
        <route edges="-E10 E11 E13"/>
    </vehicle>
    <vehicle id="veh622" depart="715.76">
        <route edges="-E9 E10"/>
    </vehicle>
    <vehicle id="veh323" depart="718.58">
        <route edges="-E14 -E8 E7 E10"/>
    </vehicle>
    <vehicle id="veh514" depart="720.26">
        <route edges="-E2 E3 E12 E13"/>
    </vehicle>
    <vehicle id="veh377" depart="722.43">
        <route edges="-E14 E12 E13"/>
    </vehicle>
    <vehicle id="veh1166" depart="722.75">
        <route edges="-E14 -E8 E7 E10"/>
    </vehicle>
    <vehicle id="veh650" depart="723.71">
        <route edges="-E9 -E7 E6"/>
    </vehicle>
    <vehicle id="veh267" depart="729.71">
        <route edges="-E14 -E8 -E0 E4"/>
    </vehicle>
    <vehicle id="veh887" depart="732.18">
        <route edges="-E9 E10"/>
    </vehicle>
    <vehicle id="veh362" depart="732.53">
        <route edges="-E13 -E12 -E3 E2"/>
    </vehicle>
    <vehicle id="veh345" depart="733.22">
        <route edges="-E9 -E7 E5 E2"/>
    </vehicle>
    <vehicle id="veh1103" depart="736.09">
        <route edges="-E13 -E12 -E8 E6"/>
    </vehicle>
    <vehicle id="veh626" depart="736.46">
        <route edges="-E10 -E7 E6"/>
    </vehicle>
    <vehicle id="veh597" depart="743.02">
        <route edges="-E6 E7 E10"/>
    </vehicle>
    <vehicle id="veh279" depart="744.23">
        <route edges="-E14 E12 -E11 E9"/>
    </vehicle>
    <vehicle id="veh1087" depart="744.91">
        <route edges="-E14 E12 E13"/>
    </vehicle>
    <vehicle id="veh353" depart="746.00">
        <route edges="-E9 -E7 -E0 E4"/>
    </vehicle>
    <vehicle id="veh1073" depart="751.84">
        <route edges="-E2 -E1 E0 E7 E10"/>
    </vehicle>
    <vehicle id="veh292" depart="752.33">
        <route edges="-E14 -E8 E6"/>
    </vehicle>
    <vehicle id="veh150" depart="752.48">
        <route edges="-E6 E8 E12 E13"/>
    </vehicle>
    <vehicle id="veh134" depart="753.82">
        <route edges="-E13 -E12 -E8 E6"/>
    </vehicle>
    <vehicle id="veh805" depart="758.07">
        <route edges="-E13 -E11 E10"/>
    </vehicle>
    <vehicle id="veh259" depart="761.93">
        <route edges="-E4 E0 E7 E10"/>
    </vehicle>
    <vehicle id="veh277" depart="770.17">
        <route edges="-E6 E8 E12 E13"/>
    </vehicle>
    <vehicle id="veh273" depart="771.63">
        <route edges="-E9 E10"/>
    </vehicle>
    <vehicle id="veh168" depart="774.63">
        <route edges="-E6 E8 E12 E13"/>
    </vehicle>
    <vehicle id="veh1181" depart="775.22">
        <route edges="-E10 E11 E13"/>
    </vehicle>
    <vehicle id="veh715" depart="775.42">
        <route edges="-E2 E3 E12 -E11 E9"/>
    </vehicle>
    <vehicle id="veh370" depart="775.53">
        <route edges="-E10 E11 E13"/>
    </vehicle>
    <vehicle id="veh330" depart="777.03">
        <route edges="-E9 E10"/>
    </vehicle>
    <vehicle id="veh838" depart="778.00">
        <route edges="-E9 E10"/>
    </vehicle>
    <vehicle id="veh987" depart="779.17">
        <route edges="-E10 E11 E13"/>
    </vehicle>
    <vehicle id="veh605" depart="779.37">
        <route edges="-E4 E0 E7 E11 E13"/>
    </vehicle>
    <vehicle id="veh380" depart="783.95">
        <route edges="-E14 -E8 E7 E10"/>
    </vehicle>
    <vehicle id="veh946" depart="787.59">
        <route edges="-E6 E8 E12 E13"/>
    </vehicle>
    <vehicle id="veh85" depart="792.87">
        <route edges="-E9 E11 E13"/>
    </vehicle>
    <vehicle id="veh1120" depart="793.65">
        <route edges="-E9 E11 -E12 -E8 E7 E9"/>
    </vehicle>
    <vehicle id="veh193" depart="796.03">
        <route edges="-E14 -E3 E2"/>
    </vehicle>
    <vehicle id="veh1158" depart="797.61">
        <route edges="-E14 -E8 E7 E10"/>
    </vehicle>
    <vehicle id="veh923" depart="802.28">
        <route edges="-E10 -E7 E6"/>
    </vehicle>
    <vehicle id="veh1063" depart="803.84">
        <route edges="-E6 E7 E10"/>
    </vehicle>
    <vehicle id="veh196" depart="803.87">
        <route edges="-E6 E8 E12 E13"/>
    </vehicle>
    <vehicle id="veh195" depart="804.08">
        <route edges="-E6 E5 -E1 E0 E6"/>
    </vehicle>
    <vehicle id="veh120" depart="805.46">