<?xml version="1.0" encoding="UTF-8"?>

<!-- generated on 2026-06-13T16:47:51.717817+01:00 by Eclipse SUMO duarouter 1.26.0
<duarouterConfiguration xmlns:xsi="http://www.w3.org/2001/XMLSchema-instance" xsi:noNamespaceSchemaLocation="http://sumo.dlr.de/xsd/duarouterConfiguration.xsd">

    <input>
        <net-file value="C:\Users\rondo\Desktop\Sys auto projeekt\src\City_map_2\city2.net.xml"/>
        <route-files value="C:\Users\rondo\AppData\Local\Temp\city2_hard_train_5.trips.xml"/>
    </input>

    <output>
        <output-file value="C:\Users\rondo\Desktop\Sys auto projeekt\src\City_map_2\city2_hard_train_5.rou.xml"/>
    </output>

    <report>
        <no-warnings value="true"/>
        <ignore-errors value="true"/>
    </report>

    <random_number>
        <seed value="1005"/>
    </random_number>

</duarouterConfiguration>
-->

<routes xmlns:xsi="http://www.w3.org/2001/XMLSchema-instance" xsi:noNamespaceSchemaLocation="http://sumo.dlr.de/xsd/routes_file.xsd">
    <vehicle id="veh499" depart="5.57">
        <route edges="-E13 -E11 E10"/>
    </vehicle>
    <vehicle id="veh272" depart="8.84">
        <route edges="-E2 E3 E12 E13"/>
    </vehicle>
    <vehicle id="veh1279" depart="42.11">
        <route edges="-E13 -E11 E10"/>
    </vehicle>
    <vehicle id="veh229" depart="49.93">
        <route edges="-E13 -E11 E10"/>
    </vehicle>
    <vehicle id="veh1875" depart="76.40">
        <route edges="-E13 -E12 -E3 -E1 E4"/>
    </vehicle>
    <vehicle id="veh1553" depart="84.88">
        <route edges="-E2 E3 E12 E13"/>
    </vehicle>
    <vehicle id="veh408" depart="91.25">
        <route edges="-E13 -E12 -E8 E6"/>
    </vehicle>
    <vehicle id="veh54" depart="110.73">
        <route edges="-E2 -E1 E0 E7 E10"/>
    </vehicle>
    <vehicle id="veh302" depart="113.86">
        <route edges="-E4 E0 E7 E11 E13"/>
    </vehicle>
    <vehicle id="veh1406" depart="143.76">
        <route edges="-E13 -E11 E10"/>
    </vehicle>
    <vehicle id="veh932" depart="147.56">
        <route edges="-E6 E7 E10"/>
    </vehicle>
    <vehicle id="veh1656" depart="154.01">
        <route edges="-E4 E0 E6"/>
    </vehicle>
    <vehicle id="veh74" depart="155.25">
        <route edges="-E9 E11 -E12 E14"/>
    </vehicle>
    <vehicle id="veh80" depart="166.72">
        <route edges="-E4 E0 E7 E10"/>
    </vehicle>
    <vehicle id="veh1959" depart="187.98">
        <route edges="-E13 -E11 E10"/>
    </vehicle>
    <vehicle id="veh568" depart="195.76">
        <route edges="-E6 E7 E10"/>
    </vehicle>
    <vehicle id="veh1668" depart="199.43">
        <route edges="-E2 -E1 E0 E7 E10"/>
    </vehicle>
    <vehicle id="veh538" depart="222.88">
        <route edges="-E6 E7 E10"/>
    </vehicle>
    <vehicle id="veh1745" depart="229.13">
        <route edges="-E6 E5 -E1 E0 E6"/>
    </vehicle>
    <vehicle id="veh1634" depart="231.15">
        <route edges="-E9 E11 E13"/>
    </vehicle>
    <vehicle id="veh275" depart="243.10">
        <route edges="-E14 E12 -E11 E9"/>
    </vehicle>
    <vehicle id="veh1889" depart="254.65">
        <route edges="-E13 -E12 -E8 E7 E11 E13"/>
    </vehicle>
    <vehicle id="veh962" depart="262.18">
        <route edges="-E14 -E3 E2"/>
    </vehicle>
    <vehicle id="veh1905" depart="264.14">
        <route edges="-E9 -E7 E6"/>
    </vehicle>
    <vehicle id="veh1819" depart="266.31">
        <route edges="-E4 E0 E8 E14"/>
    </vehicle>
    <vehicle id="veh1763" depart="273.28">
        <route edges="-E13 -E12 -E8 E7 E11 E13"/>
    </vehicle>
    <vehicle id="veh1882" depart="274.98">
        <route edges="-E14 -E8 E7 E10"/>
    </vehicle>
    <vehicle id="veh240" depart="276.30">
        <route edges="-E10 E11 -E12 -E8 E7 E10"/>
    </vehicle>
    <vehicle id="veh344" depart="277.84">
        <route edges="-E10 E11 E13"/>
    </vehicle>
    <vehicle id="veh1076" depart="280.80">
        <route edges="-E4 E0 E6"/>
    </vehicle>
    <vehicle id="veh1066" depart="282.50">
        <route edges="-E4 E0 E6"/>
    </vehicle>
    <vehicle id="veh451" depart="288.76">
        <route edges="-E13 -E11 E10"/>
    </vehicle>
    <vehicle id="veh860" depart="290.89">
        <route edges="-E6 E7 E10"/>
    </vehicle>
    <vehicle id="veh1312" depart="291.68">
        <route edges="-E6 E7 E10"/>
    </vehicle>
    <vehicle id="veh216" depart="299.21">
        <route edges="-E13 -E12 -E8 E6"/>
    </vehicle>
    <vehicle id="veh1954" depart="301.55">
        <route edges="-E14 -E8 E6"/>
    </vehicle>
    <vehicle id="veh116" depart="304.19">
        <route edges="-E4 E0 E7 E11 E13"/>
    </vehicle>
    <vehicle id="veh1019" depart="307.40">
        <route edges="-E6 E8 E12 E13"/>
    </vehicle>
    <vehicle id="veh0" depart="307.53">
        <route edges="-E2 -E1 E0 E5 E2"/>
    </vehicle>
    <vehicle id="veh288" depart="307.80">
        <route edges="-E2 E3 E12 -E11 E9"/>
    </vehicle>
    <vehicle id="veh1193" depart="307.93">
        <route edges="-E9 E11 E13"/>
    </vehicle>
    <vehicle id="veh149" depart="312.91">
        <route edges="-E13 -E12 -E8 E7 E11 E13"/>
    </vehicle>
    <vehicle id="veh1813" depart="314.60">
        <route edges="-E13 -E11 E10"/>
    </vehicle>
    <vehicle id="veh1923" depart="318.93">
        <route edges="-E9 -E7 E6"/>
    </vehicle>
    <vehicle id="veh705" depart="320.49">
        <route edges="-E10 -E7 -E0 E4"/>
    </vehicle>
    <vehicle id="veh1700" depart="332.99">
        <route edges="-E4 E0 E8 E14"/>
    </vehicle>
    <vehicle id="veh1645" depart="334.90">
        <route edges="-E13 -E12 -E8 E7 E11 E13"/>
    </vehicle>
    <vehicle id="veh178" depart="347.51">
        <route edges="-E6 E8 E12 E13"/>
    </vehicle>
    <vehicle id="veh1583" depart="352.04">
        <route edges="-E6 E5 E2"/>
    </vehicle>
    <vehicle id="veh1172" depart="358.31">
        <route edges="-E2 -E1 E0 E7 E10"/>
    </vehicle>
    <vehicle id="veh1407" depart="359.98">
        <route edges="-E6 E8 E14"/>
    </vehicle>
    <vehicle id="veh1347" depart="379.22">
        <route edges="-E10 E11 -E12 -E8 E7 E10"/>
    </vehicle>
    <vehicle id="veh1175" depart="379.35">
        <route edges="-E6 E8 E14"/>
    </vehicle>
    <vehicle id="veh1859" depart="383.00">
        <route edges="-E14 E12 E13"/>
    </vehicle>
    <vehicle id="veh1522" depart="388.68">
        <route edges="-E9 E10"/>
    </vehicle>
    <vehicle id="veh14" depart="389.32">
        <route edges="-E4 E0 E7 E10"/>
    </vehicle>
    <vehicle id="veh693" depart="389.88">
        <route edges="-E6 E7 E10"/>
    </vehicle>
    <vehicle id="veh1026" depart="395.48">
        <route edges="-E4 E0 E6"/>
    </vehicle>
    <vehicle id="veh136" depart="402.56">
        <route edges="-E10 E11 E13"/>
    </vehicle>
    <vehicle id="veh740" depart="402.87">
        <route edges="-E6 E7 E10"/>
    </vehicle>
    <vehicle id="veh446" depart="403.86">
        <route edges="-E2 E3 E12 -E11 E9"/>
    </vehicle>
    <vehicle id="veh1626" depart="415.98">
        <route edges="-E13 -E12 -E3 -E1 E4"/>
    </vehicle>
    <vehicle id="veh534" depart="417.00">
        <route edges="-E6 E5 -E1 E0 E6"/>
    </vehicle>
    <vehicle id="veh1483" depart="419.34">
        <route edges="-E9 E10"/>
    </vehicle>
    <vehicle id="veh1619" depart="421.48">
        <route edges="-E10 E11 -E12 -E8 E7 E10"/>
    </vehicle>
    <vehicle id="veh773" depart="427.71">
        <route edges="-E10 -E7 E6"/>
    </vehicle>
    <vehicle id="veh1827" depart="429.66">
        <route edges="-E13 -E12 -E8 E6"/>
    </vehicle>
    <vehicle id="veh364" depart="433.72">
        <route edges="-E9 -E7 E6"/>
    </vehicle>
    <vehicle id="veh1652" depart="435.93">
        <route edges="-E2 E3 E12 E13"/>
    </vehicle>
    <vehicle id="veh411" depart="442.57">
        <route edges="-E10 -E7 E8 E14"/>
    </vehicle>
    <vehicle id="veh1767" depart="442.64">
        <route edges="-E6 E5 -E1 E0 E6"/>
    </vehicle>
    <vehicle id="veh90" depart="443.18">
        <route edges="-E9 -E7 -E0 E4"/>
    </vehicle>
    <vehicle id="veh723" depart="443.60">
        <route edges="-E13 -E12 E14"/>
    </vehicle>
    <vehicle id="veh1098" depart="445.32">
        <route edges="-E6 E8 E12 E13"/>
    </vehicle>
    <vehicle id="veh794" depart="456.31">
        <route edges="-E4 E0 E7 E10"/>
    </vehicle>
    <vehicle id="veh1092" depart="457.84">
        <route edges="-E10 E11 -E12 -E8 E7 E10"/>
    </vehicle>
    <vehicle id="veh230" depart="459.03">
        <route edges="-E13 -E12 -E8 E6"/>
    </vehicle>
    <vehicle id="veh616" depart="461.06">
        <route edges="-E2 -E1 E0 E7 E10"/>
    </vehicle>
    <vehicle id="veh343" depart="463.37">
        <route edges="-E2 -E1 E0 E7 E10"/>
    </vehicle>
    <vehicle id="veh1501" depart="468.22">
        <route edges="-E14 -E8 E6"/>
    </vehicle>
    <vehicle id="veh487" depart="473.11">
        <route edges="-E2 E3 -E8 E6"/>
    </vehicle>
    <vehicle id="veh201" depart="473.15">
        <route edges="-E14 -E8 E7 E10"/>
    </vehicle>
    <vehicle id="veh1937" depart="473.47">
        <route edges="-E4 E0 E7 E10"/>
    </vehicle>
    <vehicle id="veh673" depart="475.96">
        <route edges="-E6 E8 E12 E13"/>
    </vehicle>
    <vehicle id="veh1069" depart="480.65">
        <route edges="-E4 E0 E7 E10"/>
    </vehicle>
    <vehicle id="veh76" depart="480.77">
        <route edges="-E4 E0 E5 -E1 E4"/>
    </vehicle>
    <vehicle id="veh513" depart="483.78">
        <route edges="-E2 -E1 E0 E5 E2"/>
    </vehicle>
    <vehicle id="veh1870" depart="487.79">
        <route edges="-E13 -E12 -E3 -E1 E4"/>
    </vehicle>
    <vehicle id="veh1054" depart="494.07">
        <route edges="-E2 -E1 E0 E7 E10"/>
    </vehicle>
    <vehicle id="veh1174" depart="494.07">
        <route edges="-E14 -E8 E7 E10"/>
    </vehicle>
    <vehicle id="veh68" depart="494.34">
        <route edges="-E6 E7 E9"/>
    </vehicle>
    <vehicle id="veh1679" depart="496.71">
        <route edges="-E2 E3 E12 E13"/>
    </vehicle>
    <vehicle id="veh892" depart="497.81">
        <route edges="-E13 -E12 -E8 E7 E11 E13"/>
    </vehicle>
    <vehicle id="veh751" depart="500.48">
        <route edges="-E2 E3 E12 -E11 E9"/>
    </vehicle>
    <vehicle id="veh1209" depart="509.21">
        <route edges="-E6 E7 E10"/>
    </vehicle>
    <vehicle id="veh378" depart="512.30">
        <route edges="-E13 -E12 -E8 E6"/>
    </vehicle>
    <vehicle id="veh755" depart="514.20">
        <route edges="-E2 E3 -E8 E6"/>
    </vehicle>
    <vehicle id="veh121" depart="515.84">
        <route edges="-E10 -E7 E6"/>
    </vehicle>
    <vehicle id="veh1199" depart="516.48">
        <route edges="-E4 E0 E7 E11 E13"/>
    </vehicle>
    <vehicle id="veh1631" depart="517.64">
        <route edges="-E9 E10"/>
    </vehicle>
    <vehicle id="veh53" depart="520.36">
        <route edges="-E6 E8 E12 E13"/>
    </vehicle>
    <vehicle id="veh1143" depart="521.08">
        <route edges="-E14 -E8 E6"/>
    </vehicle>
    <vehicle id="veh1405" depart="522.79">
        <route edges="-E4 E0 E6"/>
    </vehicle>
    <vehicle id="veh516" depart="532.87">
        <route edges="-E6 E8 E12 E13"/>
    </vehicle>
    <vehicle id="veh694" depart="547.52">
        <route edges="-E6 E5 -E1 E0 E6"/>
    </vehicle>
    <vehicle id="veh209" depart="547.56">
        <route edges="-E6 E5 -E1 E0 E6"/>
    </vehicle>
    <vehicle id="veh783" depart="548.04">
        <route edges="-E10 -E7 E5 E2"/>
    </vehicle>
    <vehicle id="veh1541" depart="549.56">
        <route edges="-E13 -E12 -E8 E6"/>
    </vehicle>
    <vehicle id="veh172" depart="550.27">
        <route edges="-E13 -E12 -E8 E6"/>
    </vehicle>
    <vehicle id="veh1341" depart="551.25">
        <route edges="-E13 -E12 -E8 E6"/>
    </vehicle>
    <vehicle id="veh828" depart="554.93">
        <route edges="-E13 -E12 -E3 -E1 E4"/>
    </vehicle>
    <vehicle id="veh1599" depart="559.48">
        <route edges="-E2 -E1 E0 E7 E10"/>
    </vehicle>
    <vehicle id="veh1346" depart="560.11">
        <route edges="-E13 -E11 E10"/>
    </vehicle>
    <vehicle id="veh1800" depart="564.33">
        <route edges="-E13 -E11 E10"/>
    </vehicle>
    <vehicle id="veh1135" depart="567.43">
        <route edges="-E4 E0 E6"/>
    </vehicle>
    <vehicle id="veh1719" depart="567.67">
        <route edges="-E9 E10"/>
    </vehicle>
    <vehicle id="veh1084" depart="569.85">
        <route edges="-E6 E8 E12 E13"/>
    </vehicle>
    <vehicle id="veh495" depart="574.88">
        <route edges="-E9 E10"/>
    </vehicle>
    <vehicle id="veh1602" depart="578.18">
        <route edges="-E14 -E8 E6"/>
    </vehicle>
    <vehicle id="veh1354" depart="585.78">
        <route edges="-E6 E5 -E1 E0 E6"/>
    </vehicle>
    <vehicle id="veh357" depart="586.16">
        <route edges="-E13 -E12 -E8 E7 E11 E13"/>
    </vehicle>
    <vehicle id="veh973" depart="588.78">
        <route edges="-E10 E11 -E12 -E8 E7 E10"/>
    </vehicle>
    <vehicle id="veh222" depart="591.20">
        <route edges="-E2 E3 E12 E13"/>
    </vehicle>
    <vehicle id="veh1644" depart="591.33">
        <route edges="-E13 -E11 E10"/>
    </vehicle>
    <vehicle id="veh1733" depart="591.37">
        <route edges="-E14 -E8 E6"/>
    </vehicle>
    <vehicle id="veh968" depart="598.60">
        <route edges="-E2 E3 -E8 E6"/>
    </vehicle>
    <vehicle id="veh1860" depart="600.98">
        <route edges="-E6 E8 E12 E13"/>
    </vehicle>
    <vehicle id="veh1287" depart="608.02">
        <route edges="-E10 E11 -E12 -E8 E7 E10"/>
    </vehicle>
    <vehicle id="veh1336" depart="608.07">
        <route edges="-E4 E0 E8 E14"/>
    </vehicle>
    <vehicle id="veh905" depart="609.76">
        <route edges="-E6 E5 -E1 E0 E6"/>
    </vehicle>
    <vehicle id="veh567" depart="609.99">
        <route edges="-E14 E12 E13"/>
    </vehicle>
    <vehicle id="veh550" depart="610.86">
        <route edges="-E6 E7 E10"/>
    </vehicle>
    <vehicle id="veh648" depart="615.22">
        <route edges="-E9 E10"/>
    </vehicle>
    <vehicle id="veh1248" depart="615.74">
        <route edges="-E10 E11 E13"/>
    </vehicle>
    <vehicle id="veh910" depart="618.50">
        <route edges="-E6 E7 E10"/>
    </vehicle>
    <vehicle id="veh925" depart="623.44">
        <route edges="-E13 -E12 E14"/>
    </vehicle>
    <vehicle id="veh536" depart="625.81">
        <route edges="-E4 E0 E6"/>
    </vehicle>
    <vehicle id="veh1852" depart="625.95">
        <route edges="-E14 -E8 E7 E10"/>
    </vehicle>
    <vehicle id="veh460" depart="628.47">
        <route edges="-E10 -E7 E6"/>
    </vehicle>
    <vehicle id="veh1953" depart="629.62">
        <route edges="-E2 E3 -E8 E6"/>
    </vehicle>
    <vehicle id="veh1185" depart="630.19">
        <route edges="-E10 E11 E13"/>
    </vehicle>
    <vehicle id="veh1459" depart="631.59">
        <route edges="-E14 E12 E13"/>
    </vehicle>
    <vehicle id="veh1847" depart="631.60">
        <route edges="-E9 E10"/>
    </vehicle>
    <vehicle id="veh410" depart="639.41">
        <route edges="-E6 E5 -E1 E0 E6"/>
    </vehicle>
    <vehicle id="veh881" depart="639.60">
        <route edges="-E9 E10"/>
    </vehicle>
    <vehicle id="veh1956" depart="641.98">
        <route edges="-E6 E8 E12 E13"/>
    </vehicle>
    <vehicle id="veh1188" depart="648.99">
        <route edges="-E4 E0 E7 E11 E13"/>
    </vehicle>
    <vehicle id="veh1067" depart="650.25">
        <route edges="-E10 E11 -E12 -E8 E7 E10"/>
    </vehicle>
    <vehicle id="veh387" depart="651.00">
        <route edges="-E14 -E8 E5 E3 E14"/>
    </vehicle>
    <vehicle id="veh1068" depart="652.32">
        <route edges="-E6 E5 -E1 E0 E6"/>
    </vehicle>
    <vehicle id="veh1439" depart="654.46">
        <route edges="-E9 E11 E13"/>
    </vehicle>
    <vehicle id="veh1468" depart="655.06">
        <route edges="-E2 -E1 E0 E7 E10"/>
    </vehicle>
    <vehicle id="veh628" depart="657.05">
        <route edges="-E13 -E11 E10"/>
    </vehicle>
    <vehicle id="veh779" depart="658.16">
        <route edges="-E2 E3 -E8 E6"/>
    </vehicle>
    <vehicle id="veh1431" depart="660.66">
        <route edges="-E9 E11 -E12 E14"/>
    </vehicle>
    <vehicle id="veh1515" depart="666.84">
        <route edges="-E9 -E7 E6"/>
    </vehicle>
    <vehicle id="veh1344" depart="667.20">
        <route edges="-E6 E7 E10"/>
    </vehicle>
    <vehicle id="veh922" depart="667.57">
        <route edges="-E13 -E12 -E8 E6"/>
    </vehicle>
    <vehicle id="veh631" depart="670.57">
        <route edges="-E9 -E7 E6"/>
    </vehicle>
    <vehicle id="veh658" depart="670.73">
        <route edges="-E6 E5 -E1 E0 E6"/>
    </vehicle>
    <vehicle id="veh1017" depart="670.90">
        <route edges="-E10 E11 E13"/>
    </vehicle>
    <vehicle id="veh1927" depart="671.92">
        <route edges="-E13 -E12 -E8 E6"/>
    </vehicle>
    <vehicle id="veh1292" depart="672.71">
        <route edges="-E9 -E7 E6"/>
    </vehicle>
    <vehicle id="veh1331" depart="680.63">
        <route edges="-E9 E10"/>
    </vehicle>
    <vehicle id="veh1620" depart="682.92">
        <route edges="-E6 E7 E10"/>
    </vehicle>
    <vehicle id="veh1996" depart="685.88">
        <route edges="-E2 -E1 E0 E7 E10"/>
    </vehicle>
    <vehicle id="veh1265" depart="686.27">
        <route edges="-E10 E11 -E12 -E8 E7 E10"/>
    </vehicle>
    <vehicle id="veh1504" depart="687.03">
        <route edges="-E9 E11 E13"/>
    </vehicle>
    <vehicle id="veh1942" depart="688.36">
        <route edges="-E10 E11 E13"/>
    </vehicle>
    <vehicle id="veh355" depart="689.14">
        <route edges="-E4 E0 E7 E11 E13"/>
    </vehicle>
    <vehicle id="veh1736" depart="692.67">
        <route edges="-E14 -E8 -E0 E4"/>
    </vehicle>
    <vehicle id="veh406" depart="693.21">
        <route edges="-E2 -E1 E0 E7 E10"/>
    </vehicle>
    <vehicle id="veh938" depart="694.30">
        <route edges="-E4 E0 E8 E14"/>
    </vehicle>
    <vehicle id="veh1118" depart="694.41">
        <route edges="-E13 -E12 -E3 -E1 E4"/>
    </vehicle>
    <vehicle id="veh99" depart="695.41">
        <route edges="-E6 E7 E10"/>
    </vehicle>
    <vehicle id="veh842" depart="695.54">
        <route edges="-E14 -E8 E7 E10"/>
    </vehicle>
    <vehicle id="veh1492" depart="696.09">
        <route edges="-E4 E0 E6"/>
    </vehicle>
    <vehicle id="veh1749" depart="701.40">
        <route edges="-E2 E3 -E8 E6"/>
    </vehicle>
    <vehicle id="veh625" depart="701.83">
        <route edges="-E14 -E8 E6"/>
    </vehicle>
    <vehicle id="veh113" depart="704.44">
        <route edges="-E9 E11 E13"/>
    </vehicle>
    <vehicle id="veh729" depart="705.65">
        <route edges="-E14 E12 E13"/>
    </vehicle>
    <vehicle id="veh301" depart="707.26">
        <route edges="-E2 E3 E12 -E11 E9"/>
    </vehicle>
    <vehicle id="veh1328" depart="708.89">
        <route edges="-E6 E5 -E1 E0 E6"/>
    </vehicle>
    <vehicle id="veh960" depart="712.74">
        <route edges="-E13 -E11 E10"/>
    </vehicle>
    <vehicle id="veh1476" depart="713.41">
        <route edges="-E14 -E8 E5 E3 E14"/>
    </vehicle>
    <vehicle id="veh1773" depart="713.73">
        <route edges="-E4 E0 E7 E10"/>
    </vehicle>
    <vehicle id="veh1009" depart="714.46">
        <route edges="-E2 E3 E12 E13"/>
    </vehicle>
    <vehicle id="veh941" depart="718.32">
        <route edges="-E10 -E7 E6"/>
    </vehicle>
    <vehicle id="veh1698" depart="718.75">
        <route edges="-E9 E11 -E12 -E8 E7 E9"/>
    </vehicle>
    <vehicle id="veh1232" depart="718.85">
        <route edges="-E10 E11 -E12 -E8 E7 E10"/>
    </vehicle>
    <vehicle id="veh2" depart="719.75">
        <route edges="-E14 -E8 E6"/>
    </vehicle>
    <vehicle id="veh821" depart="726.24">
        <route edges="-E4 E0 E6"/>
    </vehicle>
    <vehicle id="veh1222" depart="729.46">
        <route edges="-E6 E5 -E1 E0 E6"/>
    </vehicle>
    <vehicle id="veh277" depart="729.96">
        <route edges="-E10 E9"/>
    </vehicle>
    <vehicle id="veh132" depart="731.09">
        <route edges="-E4 E0 E7 E11 E13"/>
    </vehicle>
    <vehicle id="veh807" depart="731.24">
        <route edges="-E13 -E12 -E3 -E1 E4"/>
    </vehicle>
    <vehicle id="veh1136" depart="733.22">
        <route edges="-E2 E3 E12 E13"/>
    </vehicle>
    <vehicle id="veh1742" depart="733.40">
        <route edges="-E13 -E11 E10"/>
    </vehicle>
    <vehicle id="veh1899" depart="733.68">
        <route edges="-E9 -E7 E6"/>
    </vehicle>
    <vehicle id="veh1772" depart="735.12">
        <route edges="-E4 E0 E6"/>
    </vehicle>
    <vehicle id="veh1938" depart="735.74">
        <route edges="-E13 -E12 -E8 E6"/>
    </vehicle>
    <vehicle id="veh1289" depart="738.27">
        <route edges="-E14 -E8 E6"/>
    </vehicle>
    <vehicle id="veh9" depart="738.98">
        <route edges="-E10 E11 E13"/>
    </vehicle>
    <vehicle id="veh436" depart="739.84">
        <route edges="-E2 E3 E14"/>
    </vehicle>
    <vehicle id="veh377" depart="742.28">
        <route edges="-E13 -E12 -E8 E7 E11 E13"/>
    </vehicle>
    <vehicle id="veh1335" depart="742.87">
        <route edges="-E13 -E12 -E8 E7 E11 E13"/>
    </vehicle>
    <vehicle id="veh956" depart="743.60">
        <route edges="-E4 E0 E7 E10"/>
    </vehicle>
    <vehicle id="veh58" depart="747.33">
        <route edges="-E9 -E7 E6"/>
    </vehicle>
    <vehicle id="veh770" depart="750.71">
        <route edges="-E4 E0 E7 E11 E13"/>
    </vehicle>
    <vehicle id="veh124" depart="752.87">
        <route edges="-E9 E11 -E12 E14"/>
    </vehicle>
    <vehicle id="veh1180" depart="753.66">
        <route edges="-E9 E11 -E12 E14"/>
    </vehicle>
    <vehicle id="veh840" depart="753.91">
        <route edges="-E6 E5 -E1 E0 E6"/>
    </vehicle>
    <vehicle id="veh1558" depart="753.97">
        <route edges="-E13 -E12 -E8 E6"/>
    </vehicle>
    <vehicle id="veh1888" depart="756.63">
        <route edges="-E13 -E11 E10"/>
    </vehicle>
    <vehicle id="veh786" depart="759.19">
        <route edges="-E13 -E12 -E8 E7 E11 E13"/>
    </vehicle>
    <vehicle id="veh1863" depart="760.84">
        <route edges="-E13 -E12 -E3 -E1 E4"/>
    </vehicle>
    <vehicle id="veh1177" depart="764.00">
        <route edges="-E6 E8 E12 E13"/>
    </vehicle>
    <vehicle id="veh871" depart="764.07">
        <route edges="-E10 E11 -E12 -E8 E7 E10"/>
    </vehicle>
    <vehicle id="veh1895" depart="766.06">
        <route edges="-E10 -E7 E6"/>
    </vehicle>
    <vehicle id="veh1874" depart="768.06">
        <route edges="-E4 E0 E7 E10"/>
    </vehicle>
    <vehicle id="veh1116" depart="769.44">
        <route edges="-E14 E12 E13"/>
    </vehicle>
    <vehicle id="veh497" depart="770.56">
        <route edges="-E6 E5 -E1 E0 E6"/>
    </vehicle>
    <vehicle id="veh1401" depart="772.20">
        <route edges="-E14 -E8 E6"/>
    </vehicle>
    <vehicle id="veh193" depart="775.56">
        <route edges="-E13 -E12 -E8 E7 E11 E13"/>
    </vehicle>
    <vehicle id="veh1801" depart="779.60">
        <route edges="-E10 -E7 -E0 E4"/>
    </vehicle>
    <vehicle id="veh1835" depart="779.63">
        <route edges="-E14 -E8 E7 E10"/>
    </vehicle>
    <vehicle id="veh1651" depart="780.30">
        <route edges="-E2 -E1 E4"/>
    </vehicle>
    <vehicle id="veh1364" depart="780.36">
        <route edges="-E14 E12 E13"/>
    </vehicle>
    <vehicle id="veh857" depart="780.47">
        <route edges="-E6 E7 E10"/>
    </vehicle>
    <vehicle id="veh234" depart="781.08">
        <route edges="-E6 E8 E12 E13"/>
    </vehicle>
    <vehicle id="veh750" depart="790.46">
        <route edges="-E6 E5 -E1 E0 E6"/>
    </vehicle>
    <vehicle id="veh911" depart="791.29">
        <route edges="-E6 E8 E12 E13"/>
    </vehicle>
    <vehicle id="veh1325" depart="792.00">
        <route edges="-E6 E5 -E1 E0 E6"/>
    </vehicle>
    <vehicle id="veh1274" depart="792.80">
        <route edges="-E4 E0 E7 E10"/>
    </vehicle>
    <vehicle id="veh1041" depart="792.87">
        <route edges="-E4 E0 E7 E10"/>
    </vehicle>
    <vehicle id="veh25" depart="793.50">
        <route edges="-E4 E0 E8 E14"/>
    </vehicle>
    <vehicle id="veh1861" depart="796.25">
        <route edges="-E9 -E7 -E0 E4"/>
    </vehicle>
    <vehicle id="veh1817" depart="796.46">
        <route edges="-E6 E5 -E1 E0 E6"/>
    </vehicle>
    <vehicle id="veh898" depart="797.29">
        <route edges="-E2 E3 E12 E13"/>
    </vehicle>
    <vehicle id="veh1834" depart="797.60">
        <route edges="-E10 -E7 E6"/>
    </vehicle>
    <vehicle id="veh299" depart="804.60">
        <route edges="-E6 E7 E10"/>
    </vehicle>
    <vehicle id="veh533" depart="805.04">
        <route edges="-E6 E8 E12 E13"/>
    </vehicle>
    <vehicle id="veh434" depart="805.83">
        <route edges="-E9 E11 E13"/>
    </vehicle>
    <vehicle id="veh586" depart="807.76">
        <route edges="-E2 E3 E12 E13"/>
    </vehicle>
    <vehicle id="veh1342" depart="809.31">
        <route edges="-E10 E11 -E12 -E8 E7 E10"/>
    </vehicle>
    <vehicle id="veh943" depart="812.78">
        <route edges="-E6 E7 E10"/>
    </vehicle>
    <vehicle id="veh1108" depart="815.02">
        <route edges="-E10 E11 E13"/>
    </vehicle>
    <vehicle id="veh692" depart="815.21">
        <route edges="-E13 -E12 -E3 E2"/>
    </vehicle>
    <vehicle id="veh1667" depart="817.38">
        <route edges="-E9 E10"/>
    </vehicle>
    <vehicle id="veh986" depart="817.75">
        <route edges="-E2 E3 -E8 E6"/>
    </vehicle>
    <vehicle id="veh1774" depart="817.94">
        <route edges="-E6 E5 -E1 E0 E6"/>
    </vehicle>
    <vehicle id="veh1145" depart="818.65">
        <route edges="-E14 E12 E13"/>
    </vehicle>
    <vehicle id="veh1447" depart="819.42">
        <route edges="-E6 E7 E10"/>
    </vehicle>
    <vehicle id="veh429" depart="820.89">
        <route edges="-E9 E10"/>
    </vehicle>
    <vehicle id="veh688" depart="827.32">
        <route edges="-E2 E3 E12 E13"/>
    </vehicle>
    <vehicle id="veh1276" depart="827.69">
        <route edges="-E6 E7 E10"/>
    </vehicle>
    <vehicle id="veh120" depart="827.81">
        <route edges="-E2 -E1 E0 E7 E10"/>
    </vehicle>
    <vehicle id="veh1448" depart="828.65">
        <route edges="-E9 E10"/>
    </vehicle>
    <vehicle id="veh186" depart="830.13">
        <route edges="-E4 E0 E7 E10"/>
    </vehicle>
    <vehicle id="veh211" depart="831.63">
        <route edges="-E10 -E7 E8 E14"/>
    </vehicle>
    <vehicle id="veh700" depart="832.10">
        <route edges="-E13 -E11 E10"/>
    </vehicle>
    <vehicle id="veh238" depart="832.15">
        <route edges="-E4 E0 E6"/>
    </vehicle>
    <vehicle id="veh1968" depart="833.57">
        <route edges="-E13 -E11 E10"/>
    </vehicle>
    <vehicle id="veh379" depart="833.79">
        <route edges="-E14 E12 E13"/>
    </vehicle>
    <vehicle id="veh711" depart="834.49">
        <route edges="-E2 E3 E12 E13"/>
    </vehicle>
    <vehicle id="veh1301" depart="834.50">
        <route edges="-E10 -E7 E8 E14"/>
    </vehicle>
    <vehicle id="veh1850" depart="834.67">
        <route edges="-E10 -E7 E6"/>
    </vehicle>
    <vehicle id="veh838" depart="834.87">
        <route edges="-E13 -E12 E14"/>
    </vehicle>
    <vehicle id="veh64" depart="835.23">
        <route edges="-E9 -E7 E6"/>
    </vehicle>
    <vehicle id="veh370" depart="835.86">
        <route edges="-E6 E8 E12 E13"/>
    </vehicle>
    <vehicle id="veh75" depart="836.44">
        <route edges="-E10 E11 E13"/>
    </vehicle>
    <vehicle id="veh827" depart="838.07">
        <route edges="-E6 E8 E12 E13"/>
    </vehicle>
    <vehicle id="veh71" depart="844.90">
        <route edges="-E2 -E1 E0 E5 E2"/>
    </vehicle>
    <vehicle id="veh1958" depart="845.21">
        <route edges="-E14 E12 E13"/>
    </vehicle>
    <vehicle id="veh1340" depart="847.65">
        <route edges="-E9 E10"/>
    </vehicle>
    <vehicle id="veh308" depart="848.62">
        <route edges="-E13 -E12 -E8 E7 E11 E13"/>
    </vehicle>
    <vehicle id="veh1971" depart="848.94">
        <route edges="-E6 E5 -E1 E0 E6"/>
    </vehicle>
    <vehicle id="veh213" depart="849.86">
        <route edges="-E10 E9"/>
    </vehicle>
    <vehicle id="veh196" depart="850.02">
        <route edges="-E2 E3 -E8 E6"/>
    </vehicle>
    <vehicle id="veh829" depart="850.60">
        <route edges="-E14 -E8 E5 E3 E14"/>
    </vehicle>
    <vehicle id="veh1192" depart="851.37">
        <route edges="-E10 -E7 -E0 E4"/>
    </vehicle>
    <vehicle id="veh1783" depart="851.59">
        <route edges="-E6 E8 E12 E13"/>
    </vehicle>
    <vehicle id="veh1147" depart="854.13">
        <route edges="-E13 -E11 E10"/>
    </vehicle>
    <vehicle id="veh903" depart="856.10">
        <route edges="-E13 -E12 -E3 E2"/>
    </vehicle>
    <vehicle id="veh985" depart="856.49">
        <route edges="-E10 -E7 E6"/>
    </vehicle>
    <vehicle id="veh645" depart="858.96">
        <route edges="-E9 E10"/>
    </vehicle>
    <vehicle id="veh1628" depart="862.91">
        <route edges="-E6 E5 -E1 E0 E6"/>
    </vehicle>
    <vehicle id="veh1091" depart="863.06">
        <route edges="-E14 -E8 E5 E3 E14"/>
    </vehicle>
    <vehicle id="veh1582" depart="863.79">
        <route edges="-E10 E11 -E12 -E8 E7 E10"/>
    </vehicle>
    <vehicle id="veh876" depart="864.37">
        <route edges="-E9 -E7 -E0 E4"/>
    </vehicle>
    <vehicle id="veh1710" depart="864.42">
        <route edges="-E6 E5 E2"/>
    </vehicle>
    <vehicle id="veh227" depart="865.18">
        <route edges="-E13 -E12 -E8 E6"/>
    </vehicle>
    <vehicle id="veh681" depart="867.32">
        <route edges="-E9 E10"/>
    </vehicle>
    <vehicle id="veh1665" depart="870.84">
        <route edges="-E10 E11 E13"/>
    </vehicle>
    <vehicle id="veh489" depart="871.95">
        <route edges="-E14 E12 -E11 E9"/>
    </vehicle>
    <vehicle id="veh1038" depart="874.11">
        <route edges="-E10 E11 -E12 -E8 E7 E10"/>
    </vehicle>
    <vehicle id="veh882" depart="874.92">
        <route edges="-E13 -E12 -E8 E7 E11 E13"/>
    </vehicle>
    <vehicle id="veh915" depart="875.09">