<?xml version="1.0" encoding="UTF-8"?>

<!-- generated on 2026-06-13T16:47:53.060683+01:00 by Eclipse SUMO duarouter 1.26.0
<duarouterConfiguration xmlns:xsi="http://www.w3.org/2001/XMLSchema-instance" xsi:noNamespaceSchemaLocation="http://sumo.dlr.de/xsd/duarouterConfiguration.xsd">

    <input>
        <net-file value="C:\Users\rondo\Desktop\Sys auto projeekt\src\City_map_2\city2.net.xml"/>
        <route-files value="C:\Users\rondo\AppData\Local\Temp\city2_hard_eval.trips.xml"/>
    </input>

    <output>
        <output-file value="C:\Users\rondo\Desktop\Sys auto projeekt\src\City_map_2\city2_hard_eval.rou.xml"/>
    </output>

    <report>
        <no-warnings value="true"/>
        <ignore-errors value="true"/>
    </report>

    <random_number>
        <seed value="9999"/>
    </random_number>

</duarouterConfiguration>
-->

<routes xmlns:xsi="http://www.w3.org/2001/XMLSchema-instance" xsi:noNamespaceSchemaLocation="http://sumo.dlr.de/xsd/routes_file.xsd">
    <vehicle id="veh1038" depart="12.17">
        <route edges="-E10 E11 E13"/>
    </vehicle>
    <vehicle id="veh116" depart="35.04">
        <route edges="-E13 -E11 E10"/>
    </vehicle>
    <vehicle id="veh1531" depart="37.30">
        <route edges="-E10 E9"/>
    </vehicle>
    <vehicle id="veh648" depart="62.20">
        <route edges="-E14 -E8 E6"/>
    </vehicle>
    <vehicle id="veh4" depart="79.00">
        <route edges="-E2 -E1 E0 E7 E10"/>
    </vehicle>
    <vehicle id="veh1165" depart="79.49">
        <route edges="-E4 E0 E7 E10"/>
    </vehicle>
    <vehicle id="veh1629" depart="84.83">
        <route edges="-E9 E11 E13"/>
    </vehicle>
    <vehicle id="veh151" depart="109.43">
        <route edges="-E9 -E7 E6"/>
    </vehicle>
    <vehicle id="veh1394" depart="123.28">
        <route edges="-E14 E12 E13"/>
    </vehicle>
    <vehicle id="veh520" depart="128.67">
        <route edges="-E4 E0 E6"/>
    </vehicle>
    <vehicle id="veh917" depart="135.41">
        <route edges="-E14 E12 E13"/>
    </vehicle>
    <vehicle id="veh703" depart="137.74">
        <route edges="-E4 E0 E7 E11 E13"/>
    </vehicle>
    <vehicle id="veh1458" depart="137.98">
        <route edges="-E10 E11 E13"/>
    </vehicle>
    <vehicle id="veh1177" depart="150.98">
        <route edges="-E14 E12 E13"/>
    </vehicle>
    <vehicle id="veh56" depart="164.65">
        <route edges="-E4 E1 E2"/>
    </vehicle>
    <vehicle id="veh1688" depart="168.40">
        <route edges="-E2 E3 E12 E13"/>
    </vehicle>
    <vehicle id="veh1231" depart="180.44">
        <route edges="-E13 -E12 -E8 E7 E11 E13"/>
    </vehicle>
    <vehicle id="veh1921" depart="186.32">
        <route edges="-E13 -E12 -E8 E6"/>
    </vehicle>
    <vehicle id="veh1167" depart="193.12">
        <route edges="-E10 -E7 E6"/>
    </vehicle>
    <vehicle id="veh794" depart="196.85">
        <route edges="-E6 E5 -E1 E0 E6"/>
    </vehicle>
    <vehicle id="veh1416" depart="201.68">
        <route edges="-E6 E8 E12 E13"/>
    </vehicle>
    <vehicle id="veh673" depart="202.46">
        <route edges="-E2 -E1 E0 E5 E2"/>
    </vehicle>
    <vehicle id="veh1454" depart="205.59">
        <route edges="-E14 -E8 E7 E10"/>
    </vehicle>
    <vehicle id="veh529" depart="210.92">
        <route edges="-E10 -E7 -E0 E4"/>
    </vehicle>
    <vehicle id="veh1618" depart="217.43">
        <route edges="-E10 E11 E13"/>
    </vehicle>
    <vehicle id="veh631" depart="223.51">
        <route edges="-E6 -E0 E4"/>
    </vehicle>
    <vehicle id="veh1843" depart="230.50">
        <route edges="-E13 -E11 E10"/>
    </vehicle>
    <vehicle id="veh354" depart="237.59">
        <route edges="-E4 E0 E6"/>
    </vehicle>
    <vehicle id="veh170" depart="241.49">
        <route edges="-E6 E7 E10"/>
    </vehicle>
    <vehicle id="veh473" depart="257.29">
        <route edges="-E2 -E1 E0 E7 E10"/>
    </vehicle>
    <vehicle id="veh1155" depart="265.96">
        <route edges="-E10 -E7 E6"/>
    </vehicle>
    <vehicle id="veh1227" depart="266.47">
        <route edges="-E6 E8 E12 E13"/>
    </vehicle>
    <vehicle id="veh285" depart="274.46">
        <route edges="-E6 E7 E10"/>
    </vehicle>
    <vehicle id="veh39" depart="287.88">
        <route edges="-E10 E11 E13"/>
    </vehicle>
    <vehicle id="veh564" depart="295.51">
        <route edges="-E10 E11 -E12 -E8 E7 E10"/>
    </vehicle>
    <vehicle id="veh527" depart="305.82">
        <route edges="-E13 -E12 -E3 E2"/>
    </vehicle>
    <vehicle id="veh900" depart="312.93">
        <route edges="-E6 E5 -E1 E0 E6"/>
    </vehicle>
    <vehicle id="veh1479" depart="316.11">
        <route edges="-E13 -E12 -E8 E6"/>
    </vehicle>
    <vehicle id="veh24" depart="336.10">
        <route edges="-E13 -E12 -E8 E6"/>
    </vehicle>
    <vehicle id="veh161" depart="339.98">
        <route edges="-E9 E11 E13"/>
    </vehicle>
    <vehicle id="veh746" depart="341.22">
        <route edges="-E10 -E7 E6"/>
    </vehicle>
    <vehicle id="veh1138" depart="342.09">
        <route edges="-E4 E1 E2"/>
    </vehicle>
    <vehicle id="veh483" depart="343.53">
        <route edges="-E14 E12 E13"/>
    </vehicle>
    <vehicle id="veh1290" depart="347.25">
        <route edges="-E6 E7 E10"/>
    </vehicle>
    <vehicle id="veh907" depart="350.20">
        <route edges="-E13 -E12 -E8 E6"/>
    </vehicle>
    <vehicle id="veh1784" depart="351.24">
        <route edges="-E4 E0 E6"/>
    </vehicle>
    <vehicle id="veh1553" depart="351.58">
        <route edges="-E4 E0 E7 E10"/>
    </vehicle>
    <vehicle id="veh156" depart="354.10">
        <route edges="-E14 E12 -E11 E9"/>
    </vehicle>
    <vehicle id="veh1240" depart="355.04">
        <route edges="-E2 -E1 E0 E7 E10"/>
    </vehicle>
    <vehicle id="veh810" depart="355.37">
        <route edges="-E9 -E7 E6"/>
    </vehicle>
    <vehicle id="veh1805" depart="357.66">
        <route edges="-E9 E10"/>
    </vehicle>
    <vehicle id="veh472" depart="360.46">
        <route edges="-E6 E7 E10"/>
    </vehicle>
    <vehicle id="veh1446" depart="363.78">
        <route edges="-E6 E8 E12 E13"/>
    </vehicle>
    <vehicle id="veh1795" depart="364.43">
        <route edges="-E13 -E12 -E8 E6"/>
    </vehicle>
    <vehicle id="veh294" depart="364.96">
        <route edges="-E4 E0 E7 E10"/>
    </vehicle>
    <vehicle id="veh208" depart="365.89">
        <route edges="-E9 E11 E13"/>
    </vehicle>
    <vehicle id="veh281" depart="366.99">
        <route edges="-E9 -E7 E6"/>
    </vehicle>
    <vehicle id="veh80" depart="370.43">
        <route edges="-E13 -E12 -E8 E6"/>
    </vehicle>
    <vehicle id="veh228" depart="373.60">
        <route edges="-E14 -E8 E6"/>
    </vehicle>
    <vehicle id="veh1566" depart="377.33">
        <route edges="-E2 E3 -E8 E6"/>
    </vehicle>
    <vehicle id="veh120" depart="382.01">
        <route edges="-E13 -E12 -E8 E6"/>
    </vehicle>
    <vehicle id="veh789" depart="384.15">
        <route edges="-E4 E0 E7 E10"/>
    </vehicle>
    <vehicle id="veh556" depart="387.81">
        <route edges="-E9 -E7 -E0 E4"/>
    </vehicle>
    <vehicle id="veh1978" depart="390.46">
        <route edges="-E14 E12 E13"/>
    </vehicle>
    <vehicle id="veh1103" depart="394.28">
        <route edges="-E4 E0 E7 E11 E13"/>
    </vehicle>
    <vehicle id="veh1687" depart="394.71">
        <route edges="-E10 E11 -E12 -E8 E7 E10"/>
    </vehicle>
    <vehicle id="veh974" depart="407.18">
        <route edges="-E9 E11 E13"/>
    </vehicle>
    <vehicle id="veh357" depart="409.45">
        <route edges="-E9 -E7 E6"/>
    </vehicle>
    <vehicle id="veh1187" depart="418.54">
        <route edges="-E2 -E1 E4"/>
    </vehicle>
    <vehicle id="veh1672" depart="421.18">
        <route edges="-E13 -E12 -E8 E7 E11 E13"/>
    </vehicle>
    <vehicle id="veh1445" depart="423.49">
        <route edges="-E6 E5 -E1 E0 E6"/>
    </vehicle>
    <vehicle id="veh1451" depart="424.74">
        <route edges="-E2 -E1 E0 E7 E10"/>
    </vehicle>
    <vehicle id="veh1159" depart="435.89">
        <route edges="-E9 -E7 -E0 E4"/>
    </vehicle>
    <vehicle id="veh352" depart="452.64">
        <route edges="-E14 -E8 E7 E10"/>
    </vehicle>
    <vehicle id="veh1700" depart="458.45">
        <route edges="-E10 E9"/>
    </vehicle>
    <vehicle id="veh142" depart="464.75">
        <route edges="-E10 E11 E13"/>
    </vehicle>
    <vehicle id="veh1756" depart="468.01">
        <route edges="-E14 E12 E13"/>
    </vehicle>
    <vehicle id="veh392" depart="469.39">
        <route edges="-E14 E12 E13"/>
    </vehicle>
    <vehicle id="veh555" depart="469.74">
        <route edges="-E10 E9"/>
    </vehicle>
    <vehicle id="veh1889" depart="475.58">
        <route edges="-E6 E7 E10"/>
    </vehicle>
    <vehicle id="veh1389" depart="477.93">
        <route edges="-E9 E10"/>
    </vehicle>
    <vehicle id="veh1875" depart="480.78">
        <route edges="-E10 -E7 E6"/>
    </vehicle>
    <vehicle id="veh737" depart="487.58">
        <route edges="-E4 E0 E7 E11 E13"/>
    </vehicle>
    <vehicle id="veh1694" depart="487.80">
        <route edges="-E10 E11 -E12 -E8 E7 E10"/>
    </vehicle>
    <vehicle id="veh786" depart="493.87">
        <route edges="-E9 E10"/>
    </vehicle>
    <vehicle id="veh310" depart="497.77">
        <route edges="-E14 -E8 E7 E10"/>
    </vehicle>
    <vehicle id="veh1970" depart="503.45">
        <route edges="-E2 E3 E12 E13"/>
    </vehicle>
    <vehicle id="veh1736" depart="507.60">
        <route edges="-E13 -E12 -E8 E7 E11 E13"/>
    </vehicle>
    <vehicle id="veh1683" depart="508.83">
        <route edges="-E2 E3 -E8 E6"/>
    </vehicle>
    <vehicle id="veh1844" depart="514.54">
        <route edges="-E4 E0 E6"/>
    </vehicle>
    <vehicle id="veh543" depart="520.77">
        <route edges="-E14 E12 E13"/>
    </vehicle>
    <vehicle id="veh1384" depart="529.06">
        <route edges="-E2 E3 -E8 E6"/>
    </vehicle>
    <vehicle id="veh934" depart="529.61">
        <route edges="-E9 -E7 E6"/>
    </vehicle>
    <vehicle id="veh1202" depart="530.24">
        <route edges="-E6 E8 E12 E13"/>
    </vehicle>
    <vehicle id="veh1284" depart="534.01">
        <route edges="-E10 E11 E13"/>
    </vehicle>
    <vehicle id="veh495" depart="539.98">
        <route edges="-E13 -E12 -E3 E2"/>
    </vehicle>
    <vehicle id="veh1762" depart="540.06">
        <route edges="-E9 E11 E13"/>
    </vehicle>
    <vehicle id="veh1624" depart="541.70">
        <route edges="-E2 -E1 E0 E5 E2"/>
    </vehicle>
    <vehicle id="veh129" depart="547.20">
        <route edges="-E6 E7 E10"/>
    </vehicle>
    <vehicle id="veh1126" depart="548.40">
        <route edges="-E4 E0 E7 E11 E13"/>
    </vehicle>
    <vehicle id="veh1429" depart="554.16">
        <route edges="-E14 -E8 E6"/>
    </vehicle>
    <vehicle id="veh1972" depart="563.13">
        <route edges="-E6 E8 E12 E13"/>
    </vehicle>
    <vehicle id="veh435" depart="563.97">
        <route edges="-E14 -E8 E6"/>
    </vehicle>
    <vehicle id="veh765" depart="570.25">
        <route edges="-E13 -E12 -E8 E6"/>
    </vehicle>
    <vehicle id="veh862" depart="571.64">
        <route edges="-E2 E3 -E8 E6"/>
    </vehicle>
    <vehicle id="veh1149" depart="573.55">
        <route edges="-E2 -E1 E0 E7 E10"/>
    </vehicle>
    <vehicle id="veh463" depart="574.61">
        <route edges="-E14 -E8 E6"/>
    </vehicle>
    <vehicle id="veh851" depart="574.74">
        <route edges="-E4 E0 E6"/>
    </vehicle>
    <vehicle id="veh635" depart="575.26">
        <route edges="-E6 E8 E12 E13"/>
    </vehicle>
    <vehicle id="veh1502" depart="577.97">
        <route edges="-E4 E0 E7 E11 E13"/>
    </vehicle>
    <vehicle id="veh808" depart="578.19">
        <route edges="-E14 E12 E13"/>
    </vehicle>
    <vehicle id="veh1004" depart="579.07">
        <route edges="-E13 -E11 E10"/>
    </vehicle>
    <vehicle id="veh203" depart="580.28">
        <route edges="-E9 E10"/>
    </vehicle>
    <vehicle id="veh1600" depart="582.54">
        <route edges="-E14 -E8 E6"/>
    </vehicle>
    <vehicle id="veh1635" depart="584.42">
        <route edges="-E9 -E7 E6"/>
    </vehicle>
    <vehicle id="veh1999" depart="585.84">
        <route edges="-E13 -E12 -E8 E7 E11 E13"/>
    </vehicle>
    <vehicle id="veh1841" depart="587.01">
        <route edges="-E9 E11 E13"/>
    </vehicle>
    <vehicle id="veh597" depart="587.02">
        <route edges="-E6 E7 E10"/>
    </vehicle>
    <vehicle id="veh781" depart="588.75">
        <route edges="-E9 -E7 E6"/>
    </vehicle>
    <vehicle id="veh1152" depart="589.17">
        <route edges="-E10 -E7 E6"/>
    </vehicle>
    <vehicle id="veh904" depart="590.82">
        <route edges="-E14 -E8 E7 E10"/>
    </vehicle>
    <vehicle id="veh884" depart="593.59">
        <route edges="-E6 E8 E12 E13"/>
    </vehicle>
    <vehicle id="veh332" depart="597.47">
        <route edges="-E2 E3 -E8 E6"/>
    </vehicle>
    <vehicle id="veh1350" depart="597.73">
        <route edges="-E6 E8 E12 E13"/>
    </vehicle>
    <vehicle id="veh1465" depart="598.12">
        <route edges="-E13 -E11 E10"/>
    </vehicle>
    <vehicle id="veh1279" depart="600.24">
        <route edges="-E13 -E12 -E8 E7 E11 E13"/>
    </vehicle>
    <vehicle id="veh1507" depart="609.41">
        <route edges="-E13 -E12 -E8 E6"/>
    </vehicle>
    <vehicle id="veh896" depart="620.45">
        <route edges="-E13 -E11 E10"/>
    </vehicle>
    <vehicle id="veh1397" depart="623.49">
        <route edges="-E4 E0 E7 E10"/>
    </vehicle>
    <vehicle id="veh1504" depart="624.72">
        <route edges="-E14 -E8 E7 E10"/>
    </vehicle>
    <vehicle id="veh958" depart="626.47">
        <route edges="-E13 -E12 -E8 E6"/>
    </vehicle>
    <vehicle id="veh1230" depart="626.80">
        <route edges="-E2 E3 E12 E13"/>
    </vehicle>
    <vehicle id="veh409" depart="630.48">
        <route edges="-E2 E3 -E8 E6"/>
    </vehicle>
    <vehicle id="veh383" depart="634.17">
        <route edges="-E13 -E12 -E3 E2"/>
    </vehicle>
    <vehicle id="veh131" depart="634.65">
        <route edges="-E2 -E1 E0 E7 E10"/>
    </vehicle>
    <vehicle id="veh1568" depart="635.27">
        <route edges="-E2 E3 E14"/>
    </vehicle>
    <vehicle id="veh10" depart="637.85">
        <route edges="-E4 E0 E7 E11 E13"/>
    </vehicle>
    <vehicle id="veh423" depart="643.92">
        <route edges="-E14 -E8 E7 E10"/>
    </vehicle>
    <vehicle id="veh147" depart="644.29">
        <route edges="-E13 -E12 E14"/>
    </vehicle>
    <vehicle id="veh1664" depart="644.32">
        <route edges="-E13 -E12 -E3 -E1 E4"/>
    </vehicle>
    <vehicle id="veh914" depart="650.76">
        <route edges="-E9 E11 E13"/>
    </vehicle>
    <vehicle id="veh94" depart="651.44">
        <route edges="-E13 -E11 E10"/>
    </vehicle>
    <vehicle id="veh1314" depart="653.97">
        <route edges="-E10 -E7 E6"/>
    </vehicle>
    <vehicle id="veh1254" depart="655.22">
        <route edges="-E13 -E12 E14"/>
    </vehicle>
    <vehicle id="veh491" depart="656.68">
        <route edges="-E2 E3 -E8 E6"/>
    </vehicle>
    <vehicle id="veh1313" depart="662.10">
        <route edges="-E10 E11 -E12 -E8 E7 E10"/>
    </vehicle>
    <vehicle id="veh875" depart="663.35">
        <route edges="-E10 E11 E13"/>
    </vehicle>
    <vehicle id="veh1473" depart="664.79">
        <route edges="-E14 E12 E13"/>
    </vehicle>
    <vehicle id="veh1158" depart="671.24">
        <route edges="-E14 E12 E13"/>
    </vehicle>
    <vehicle id="veh827" depart="672.99">
        <route edges="-E6 E7 E10"/>
    </vehicle>
    <vehicle id="veh1316" depart="676.65">
        <route edges="-E13 -E12 -E8 E6"/>
    </vehicle>
    <vehicle id="veh235" depart="678.13">
        <route edges="-E6 E8 E12 E13"/>
    </vehicle>
    <vehicle id="veh373" depart="679.17">
        <route edges="-E2 E3 E12 E13"/>
    </vehicle>
    <vehicle id="veh1573" depart="679.53">
        <route edges="-E2 E3 -E8 E6"/>
    </vehicle>
    <vehicle id="veh500" depart="681.70">
        <route edges="-E10 E11 E13"/>
    </vehicle>
    <vehicle id="veh694" depart="682.07">
        <route edges="-E9 E11 E13"/>
    </vehicle>
    <vehicle id="veh602" depart="682.37">
        <route edges="-E6 E8 E12 E13"/>
    </vehicle>
    <vehicle id="veh531" depart="686.67">
        <route edges="-E2 E3 E12 E13"/>
    </vehicle>
    <vehicle id="veh58" depart="694.63">
        <route edges="-E13 -E12 -E8 E6"/>
    </vehicle>
    <vehicle id="veh488" depart="694.79">
        <route edges="-E2 E3 -E8 E6"/>
    </vehicle>
    <vehicle id="veh1937" depart="694.93">
        <route edges="-E4 E0 E7 E11 E13"/>
    </vehicle>
    <vehicle id="veh1797" depart="695.43">
        <route edges="-E9 E11 E13"/>
    </vehicle>
    <vehicle id="veh397" depart="704.55">
        <route edges="-E10 -E7 -E0 E4"/>
    </vehicle>
    <vehicle id="veh1308" depart="709.24">
        <route edges="-E4 E0 E7 E11 E13"/>
    </vehicle>
    <vehicle id="veh251" depart="710.46">
        <route edges="-E6 E5 E2"/>
    </vehicle>
    <vehicle id="veh1886" depart="710.74">
        <route edges="-E2 E3 E14"/>
    </vehicle>
    <vehicle id="veh1564" depart="711.01">
        <route edges="-E10 E11 -E12 -E8 E7 E10"/>
    </vehicle>
    <vehicle id="veh480" depart="713.46">
        <route edges="-E9 E10"/>
    </vehicle>
    <vehicle id="veh1467" depart="718.29">
        <route edges="-E14 -E8 E6"/>
    </vehicle>
    <vehicle id="veh784" depart="721.91">
        <route edges="-E10 E11 -E12 -E8 E7 E10"/>
    </vehicle>
    <vehicle id="veh1018" depart="725.05">
        <route edges="-E6 E7 E10"/>
    </vehicle>
    <vehicle id="veh647" depart="726.07">
        <route edges="-E13 -E12 -E8 E6"/>
    </vehicle>
    <vehicle id="veh1535" depart="727.60">
        <route edges="-E13 -E12 -E8 E6"/>
    </vehicle>
    <vehicle id="veh1400" depart="733.77">
        <route edges="-E13 -E12 -E8 E7 E11 E13"/>
    </vehicle>
    <vehicle id="veh908" depart="734.36">
        <route edges="-E14 -E8 E6"/>
    </vehicle>
    <vehicle id="veh772" depart="737.78">
        <route edges="-E10 E9"/>
    </vehicle>
    <vehicle id="veh241" depart="738.43">
        <route edges="-E9 -E7 E6"/>
    </vehicle>
    <vehicle id="veh657" depart="738.99">
        <route edges="-E6 E5 -E1 E0 E6"/>
    </vehicle>
    <vehicle id="veh1150" depart="739.59">
        <route edges="-E10 -E7 E6"/>
    </vehicle>
    <vehicle id="veh898" depart="741.88">
        <route edges="-E4 E0 E7 E11 E13"/>
    </vehicle>
    <vehicle id="veh370" depart="742.58">
        <route edges="-E4 E0 E7 E10"/>
    </vehicle>
    <vehicle id="veh1480" depart="743.19">
        <route edges="-E13 -E12 -E3 -E1 E4"/>
    </vehicle>
    <vehicle id="veh270" depart="745.13">
        <route edges="-E4 E0 E6"/>
    </vehicle>
    <vehicle id="veh689" depart="746.26">
        <route edges="-E9 E10"/>
    </vehicle>
    <vehicle id="veh47" depart="746.29">
        <route edges="-E13 -E11 E10"/>
    </vehicle>
    <vehicle id="veh1901" depart="751.58">
        <route edges="-E10 E11 -E12 -E8 E7 E10"/>
    </vehicle>
    <vehicle id="veh230" depart="753.25">
        <route edges="-E13 -E12 -E8 E7 E11 E13"/>
    </vehicle>
    <vehicle id="veh678" depart="754.02">
        <route edges="-E9 E10"/>
    </vehicle>
    <vehicle id="veh686" depart="755.41">
        <route edges="-E2 E3 E12 -E11 E9"/>
    </vehicle>
    <vehicle id="veh800" depart="756.59">
        <route edges="-E14 -E8 E6"/>
    </vehicle>
    <vehicle id="veh1707" depart="756.65">
        <route edges="-E10 -E7 E6"/>
    </vehicle>
    <vehicle id="veh1836" depart="757.87">
        <route edges="-E14 -E8 E6"/>
    </vehicle>
    <vehicle id="veh803" depart="758.06">
        <route edges="-E10 -E7 E6"/>
    </vehicle>
    <vehicle id="veh298" depart="758.95">
        <route edges="-E13 -E12 -E3 E2"/>
    </vehicle>
    <vehicle id="veh99" depart="760.20">
        <route edges="-E9 -E7 E6"/>
    </vehicle>
    <vehicle id="veh709" depart="760.73">
        <route edges="-E6 E5 -E1 E0 E6"/>
    </vehicle>
    <vehicle id="veh1499" depart="764.47">
        <route edges="-E14 -E8 E6"/>
    </vehicle>
    <vehicle id="veh489" depart="767.20">
        <route edges="-E13 -E12 -E3 E2"/>
    </vehicle>
    <vehicle id="veh994" depart="768.69">
        <route edges="-E2 E3 E12 E13"/>
    </vehicle>
    <vehicle id="veh1571" depart="768.87">
        <route edges="-E14 -E8 E7 E10"/>
    </vehicle>
    <vehicle id="veh9" depart="769.47">
        <route edges="-E4 E0 E6"/>
    </vehicle>
    <vehicle id="veh1364" depart="769.52">
        <route edges="-E2 E3 E12 E13"/>
    </vehicle>
    <vehicle id="veh988" depart="770.99">
        <route edges="-E2 E3 E14"/>
    </vehicle>
    <vehicle id="veh1537" depart="772.19">
        <route edges="-E10 E11 -E12 -E8 E7 E10"/>
    </vehicle>
    <vehicle id="veh1819" depart="772.54">
        <route edges="-E4 E0 E7 E10"/>
    </vehicle>
    <vehicle id="veh1593" depart="773.25">
        <route edges="-E6 E5 -E1 E0 E6"/>
    </vehicle>
    <vehicle id="veh1933" depart="776.99">
        <route edges="-E10 -E7 E6"/>
    </vehicle>
    <vehicle id="veh1046" depart="777.50">
        <route edges="-E13 -E12 -E8 E6"/>
    </vehicle>
    <vehicle id="veh232" depart="780.45">
        <route edges="-E14 E12 E13"/>
    </vehicle>
    <vehicle id="veh293" depart="781.34">
        <route edges="-E6 E7 E10"/>
    </vehicle>
    <vehicle id="veh562" depart="782.93">
        <route edges="-E6 E8 E12 E13"/>
    </vehicle>
    <vehicle id="veh1743" depart="783.49">
        <route edges="-E9 E11 E13"/>
    </vehicle>
    <vehicle id="veh1728" depart="796.00">
        <route edges="-E9 -E7 -E0 E4"/>
    </vehicle>
    <vehicle id="veh791" depart="796.24">
        <route edges="-E6 E7 E10"/>
    </vehicle>
    <vehicle id="veh341" depart="802.50">
        <route edges="-E6 E7 E10"/>
    </vehicle>
    <vehicle id="veh1287" depart="802.51">
        <route edges="-E9 E11 E13"/>
    </vehicle>
    <vehicle id="veh940" depart="804.55">
        <route edges="-E2 E3 -E8 E6"/>
    </vehicle>
    <vehicle id="veh1601" depart="806.22">
        <route edges="-E9 E11 -E12 -E8 E7 E9"/>
    </vehicle>
    <vehicle id="veh1557" depart="807.62">
        <route edges="-E13 -E12 -E8 E6"/>
    </vehicle>
    <vehicle id="veh431" depart="808.59">
        <route edges="-E13 -E12 -E8 E6"/>
    </vehicle>
    <vehicle id="veh1562" depart="808.90">
        <route edges="-E4 E0 E7 E10"/>
    </vehicle>
    <vehicle id="veh857" depart="809.24">
        <route edges="-E4 E0 E6"/>
    </vehicle>
    <vehicle id="veh396" depart="809.62">
        <route edges="-E2 E3 E12 E13"/>
    </vehicle>
    <vehicle id="veh1693" depart="810.76">
        <route edges="-E10 -E7 -E0 E4"/>
    </vehicle>
    <vehicle id="veh153" depart="814.33">
        <route edges="-E13 -E12 -E3 -E1 E4"/>
    </vehicle>
    <vehicle id="veh1045" depart="816.06">
        <route edges="-E6 E8 E12 E13"/>
    </vehicle>
    <vehicle id="veh1236" depart="816.75">
        <route edges="-E13 -E12 -E8 E7 E11 E13"/>
    </vehicle>
    <vehicle id="veh604" depart="817.05">
        <route edges="-E10 E11 -E12 -E8 E7 E10"/>
    </vehicle>
    <vehicle id="veh1874" depart="818.18">
        <route edges="-E2 -E1 E0 E7 E10"/>
    </vehicle>
    <vehicle id="veh1030" depart="820.24">
        <route edges="-E2 -E1 E0 E7 E10"/>
    </vehicle>
    <vehicle id="veh963" depart="820.90">
        <route edges="-E2 E3 E12 -E11 E9"/>
    </vehicle>
    <vehicle id="veh566" depart="821.08">
        <route edges="-E13 -E12 -E8 E6"/>
    </vehicle>
    <vehicle id="veh266" depart="822.58">
        <route edges="-E4 E0 E7 E9"/>
    </vehicle>
    <vehicle id="veh1985" depart="823.58">
        <route edges="-E9 E10"/>
    </vehicle>
    <vehicle id="veh1955" depart="825.49">
        <route edges="-E6 E8 E12 E13"/>
    </vehicle>
    <vehicle id="veh669" depart="826.68">
        <route edges="-E4 E0 E7 E10"/>
    </vehicle>
    <vehicle id="veh377" depart="829.87">
        <route edges="-E14 -E8 E6"/>
    </vehicle>
    <vehicle id="veh939" depart="830.90">
        <route edges="-E13 -E12 -E8 E7 E11 E13"/>
    </vehicle>
    <vehicle id="veh847" depart="831.68">
        <route edges="-E4 E0 E6"/>
    </vehicle>
    <vehicle id="veh5" depart="833.32">
        <route edges="-E6 -E0 E4"/>
    </vehicle>
    <vehicle id="veh1850" depart="833.83">
        <route edges="-E13 -E11 E10"/>
    </vehicle>
    <vehicle id="veh1425" depart="837.03">
        <route edges="-E4 E0 E7 E10"/>
    </vehicle>
    <vehicle id="veh1679" depart="837.78">
        <route edges="-E4 E0 E7 E11 E13"/>
    </vehicle>
    <vehicle id="veh1091" depart="839.12">
        <route edges="-E6 E8 E12 E13"/>
    </vehicle>
    <vehicle id="veh1967" depart="839.48">
        <route edges="-E6 E5 -E1 E0 E6"/>
    </vehicle>
    <vehicle id="veh801" depart="839.62">
        <route edges="-E4 E0 E7 E11 E13"/>
    </vehicle>
    <vehicle id="veh1119" depart="840.24">
        <route edges="-E2 -E1 E0 E7 E10"/>
    </vehicle>
    <vehicle id="veh1115" depart="842.60">
        <route edges="-E14 -E8 E6"/>
    </vehicle>
    <vehicle id="veh1214" depart="843.49">
        <route edges="-E4 E0 E6"/>
    </vehicle>
    <vehicle id="veh222" depart="843.60">
        <route edges="-E2 E3 E12 E13"/>
    </vehicle>
    <vehicle id="veh1523" depart="844.02">
        <route edges="-E4 E0 E7 E11 E13"/>
    </vehicle>
    <vehicle id="veh1028" depart="844.52">
        <route edges="-E10 -E7 -E0 E4"/>
    </vehicle>
    <vehicle id="veh854" depart="847.80">
        <route edges="-E2 -E1 E0 E7 E10"/>
    </vehicle>
    <vehicle id="veh498" depart="851.69">
        <route edges="-E4 E0 E7 E10"/>
    </vehicle>
    <vehicle id="veh1559" depart="852.16">
        <route edges="-E9 E11 -E12 E14"/>
    </vehicle>
    <vehicle id="veh468" depart="852.53">
        <route edges="-E13 -E12 -E3 -E1 E4"/>
    </vehicle>
    <vehicle id="veh906" depart="854.68">
        <route edges="-E14 -E8 E6"/>
    </vehicle>
    <vehicle id="veh1849" depart="855.13">
        <route edges="-E14 -E8 E7 E10"/>
    </vehicle>
    <vehicle id="veh361" depart="858.30">
        <route edges="-E6 E5 E2"/>
    </vehicle>
    <vehicle id="veh607" depart="860.98">
        <route edges="-E13 -E12 -E8 E7 E11 E13"/>
    </vehicle>
    <vehicle id="veh886" depart="861.11">
        <route edges="-E4 E0 E7 E11 E13"/>
    </vehicle>
    <vehicle id="veh458" depart="861.88">
        <route edges="-E6 E5 -E1 E0 E6"/>
    </vehicle>
    <vehicle id="veh1505" depart="862.24">
        <route edges="-E4 E0 E7 E10"/>
    </vehicle>
    <vehicle id="veh902" depart="863.18">
        <route edges="-E4 E1 E2"/>
    </vehicle>
    <vehicle id="veh1662" depart="864.79">
        <route edges="-E6 E8 E12 E13"/>
    </vehicle>
    <vehicle id="veh747" depart="865.15">
        <route edges="-E13 -E12 -E8 E6"/>
    </vehicle>
    <vehicle id="veh1846" depart="865.25">
        <route edges="-E4 E0 E8 E14"/>
    </vehicle>
    <vehicle id="veh1931" depart="866.16">
        <route edges="-E6 E7 E10"/>
    </vehicle>
    <vehicle id="veh949" depart="868.05">
        <route edges="-E6 E5 -E1 E0 E6"/>
    </vehicle>
    <vehicle id="veh1653" depart="868.12">
        <route edges="-E2 E3 E12 E13"/>
    </vehicle>
    <vehicle id="veh719" depart="869.71">
        <route edges="-E2 E3 E12 E13"/>
    </vehicle>
    <vehicle id="veh461" depart="873.78">
        <route edges="-E10 -E7 E6"/>
    </vehicle>
    <vehicle id="veh1112" depart="874.38">
        <route edges="-E9 E10"/>
    </vehicle>
    <vehicle id="veh1909" depart="876.63">
        <route edges="-E9 -E7 E6"/>
    </vehicle>
    <vehicle id="veh1372" depart="876.78">
        <route edges="-E6 E5 -E1 E0 E6"/>
    </vehicle>
    <vehicle id="veh1739" depart="877.76">
        <route edges="-E10 E11 E13"/>
    </vehicle>
    <vehicle id="veh1057" depart="878.70">
        <route edges="-E14 -E8 E6"/>
    </vehicle>
    <vehicle id="veh258" depart="879.02">
        <route edges="-E2 E3 -E8 E6"/>
    </vehicle>
    <vehicle id="veh1181" depart="885.86">
        <route edges="-E13 -E12 -E8 E6"/>
    </vehicle>
    <vehicle id="veh290" depart="886.55">
        <route edges="-E2 E3 E12 E13"/>
    </vehicle>
    <vehicle id="veh777" depart="887.40">
        <route edges="-E10 E11 -E12 -E8 E7 E10"/>
    </vehicle>
    <vehicle id="veh563" depart="889.02">
        <route edges="-E2 E3 E12 E13"/>
    </vehicle>
    <vehicle id="veh670" depart="891.23">
        <route edges="-E4 E0 E7 E11 E13"/>
    </vehicle>
    <vehicle id="veh1376" depart="891.37">
        <route edges="-E10 E11 E13"/>
    </vehicle>
    <vehicle id="veh1186" depart="891.42">
        <route edges="-E13 -E12 -E8 E6"/>
    </vehicle>
    <vehicle id="veh108" depart="891.65">
        <route edges="-E14 E12 E13"/>
    </vehicle>
    <vehicle id="veh1915" depart="892.90">
        <route edges="-E9 E10"/>
    </vehicle>
    <vehicle id="veh540" depart="893.88">
        <route edges="-E2 E3 -E8 E6"/>
    </vehicle>
    <vehicle id="veh516" depart="894.28">
        <route edges="-E6 E8 E12 E13"/>
    </vehicle>
    <vehicle id="veh1905" depart="896.17">
        <route edges="-E6 E7 E9"/>
    </vehicle>
    <vehicle id="veh1403" depart="898.22">
        <route edges="-E6 E7 E10"/>
    </vehicle>
    <vehicle id="veh29" depart="899.19">
        <route edges="-E6 E8 E14"/>
    </vehicle>
    <vehicle id="veh1209" depart="899.22">
        <route edges="-E14 -E8 E6"/>
    </vehicle>
    <vehicle id="veh1842" depart="901.72">
        <route edges="-E6 E8 E12 E13"/>
    </vehicle>
    <vehicle id="veh926" depart="902.55">
        <route edges="-E10 E11 E13"/>
    </vehicle>
    <vehicle id="veh38" depart="903.56">
        <route edges="-E13 -E12 -E8 E7 E11 E13"/>
    </vehicle>
    <vehicle id="veh277" depart="905.94">
        <route edges="-E2 E3 E12 -E11 E9"/>
    </vehicle>
    <vehicle id="veh410" depart="906.95">
        <route edges="-E10 E11 E13"/>
    </vehicle>
    <vehicle id="veh136" depart="907.70">
        <route edges="-E2 -E1 E4"/>