<?xml version="1.0" encoding="UTF-8"?>

<!-- generated on 2026-06-13T16:47:51.297402+01:00 by Eclipse SUMO duarouter 1.26.0
<duarouterConfiguration xmlns:xsi="http://www.w3.org/2001/XMLSchema-instance" xsi:noNamespaceSchemaLocation="http://sumo.dlr.de/xsd/duarouterConfiguration.xsd">

    <input>
        <net-file value="C:\Users\rondo\Desktop\Sys auto projeekt\src\City_map_2\city2.net.xml"/>
        <route-files value="C:\Users\rondo\AppData\Local\Temp\city2_hard_train_4.trips.xml"/>
    </input>

    <output>
        <output-file value="C:\Users\rondo\Desktop\Sys auto projeekt\src\City_map_2\city2_hard_train_4.rou.xml"/>
    </output>

    <report>
        <no-warnings value="true"/>
        <ignore-errors value="true"/>
    </report>

    <random_number>
        <seed value="1004"/>
    </random_number>

</duarouterConfiguration>
-->

<routes xmlns:xsi="http://www.w3.org/2001/XMLSchema-instance" xsi:noNamespaceSchemaLocation="http://sumo.dlr.de/xsd/routes_file.xsd">
    <vehicle id="veh24" depart="1.12">
        <route edges="-E9 E11 E13"/>
    </vehicle>
    <vehicle id="veh1126" depart="44.66">
        <route edges="-E6 E7 E10"/>
    </vehicle>
    <vehicle id="veh1345" depart="60.35">
        <route edges="-E4 E0 E5 -E1 E4"/>
    </vehicle>
    <vehicle id="veh1665" depart="74.32">
        <route edges="-E13 -E12 -E8 E7 E11 E13"/>
    </vehicle>
    <vehicle id="veh1810" depart="77.57">
        <route edges="-E9 E10"/>
    </vehicle>
    <vehicle id="veh115" depart="86.08">
        <route edges="-E9 -E7 -E0 E4"/>
    </vehicle>
    <vehicle id="veh1522" depart="87.57">
        <route edges="-E2 E3 -E8 E6"/>
    </vehicle>
    <vehicle id="veh642" depart="117.01">
        <route edges="-E9 -E7 E6"/>
    </vehicle>
    <vehicle id="veh229" depart="126.27">
        <route edges="-E9 E10"/>
    </vehicle>
    <vehicle id="veh1024" depart="135.71">
        <route edges="-E13 -E11 E10"/>
    </vehicle>
    <vehicle id="veh902" depart="149.92">
        <route edges="-E4 E0 E6"/>
    </vehicle>
    <vehicle id="veh900" depart="155.27">
        <route edges="-E9 E11 E13"/>
    </vehicle>
    <vehicle id="veh825" depart="158.12">
        <route edges="-E10 E11 -E12 -E8 E7 E10"/>
    </vehicle>
    <vehicle id="veh1549" depart="160.58">
        <route edges="-E9 -E7 E6"/>
    </vehicle>
    <vehicle id="veh1774" depart="177.59">
        <route edges="-E6 E5 -E1 E0 E6"/>
    </vehicle>
    <vehicle id="veh220" depart="177.59">
        <route edges="-E2 E3 E12 E13"/>
    </vehicle>
    <vehicle id="veh859" depart="184.79">
        <route edges="-E6 E5 -E1 E0 E6"/>
    </vehicle>
    <vehicle id="veh1808" depart="187.99">
        <route edges="-E9 E10"/>
    </vehicle>
    <vehicle id="veh736" depart="195.47">
        <route edges="-E4 E0 E6"/>
    </vehicle>
    <vehicle id="veh382" depart="198.96">
        <route edges="-E13 -E12 -E8 E7 E11 E13"/>
    </vehicle>
    <vehicle id="veh400" depart="223.70">
        <route edges="-E2 E3 E12 E13"/>
    </vehicle>
    <vehicle id="veh1047" depart="226.71">
        <route edges="-E14 E12 E13"/>
    </vehicle>
    <vehicle id="veh974" depart="244.27">
        <route edges="-E2 E3 -E8 E6"/>
    </vehicle>
    <vehicle id="veh303" depart="244.37">
        <route edges="-E2 E3 -E8 E6"/>
    </vehicle>
    <vehicle id="veh1634" depart="246.61">
        <route edges="-E9 E10"/>
    </vehicle>
    <vehicle id="veh1977" depart="251.54">
        <route edges="-E13 -E11 E10"/>
    </vehicle>
    <vehicle id="veh1377" depart="260.15">
        <route edges="-E4 E0 E7 E10"/>
    </vehicle>
    <vehicle id="veh91" depart="269.53">
        <route edges="-E2 E3 E12 E13"/>
    </vehicle>
    <vehicle id="veh744" depart="269.66">
        <route edges="-E6 E7 E10"/>
    </vehicle>
    <vehicle id="veh1181" depart="271.84">
        <route edges="-E4 E0 E6"/>
    </vehicle>
    <vehicle id="veh1623" depart="272.85">
        <route edges="-E6 E8 E14"/>
    </vehicle>
    <vehicle id="veh1609" depart="276.81">
        <route edges="-E14 -E8 E7 E10"/>
    </vehicle>
    <vehicle id="veh679" depart="283.20">
        <route edges="-E14 E12 E13"/>
    </vehicle>
    <vehicle id="veh1475" depart="283.29">
        <route edges="-E2 E3 -E8 E6"/>
    </vehicle>
    <vehicle id="veh1300" depart="287.59">
        <route edges="-E2 -E1 E0 E7 E10"/>
    </vehicle>
    <vehicle id="veh85" depart="303.52">
        <route edges="-E6 E5 -E1 E0 E6"/>
    </vehicle>
    <vehicle id="veh1407" depart="304.58">
        <route edges="-E9 E10"/>
    </vehicle>
    <vehicle id="veh1404" depart="304.77">
        <route edges="-E4 E0 E6"/>
    </vehicle>
    <vehicle id="veh961" depart="308.40">
        <route edges="-E9 -E7 E6"/>
    </vehicle>
    <vehicle id="veh838" depart="318.83">
        <route edges="-E14 -E8 E6"/>
    </vehicle>
    <vehicle id="veh1082" depart="319.90">
        <route edges="-E10 E11 E13"/>
    </vehicle>
    <vehicle id="veh381" depart="321.08">
        <route edges="-E13 -E12 -E8 E7 E11 E13"/>
    </vehicle>
    <vehicle id="veh34" depart="323.21">
        <route edges="-E13 -E12 -E8 E7 E11 E13"/>
    </vehicle>
    <vehicle id="veh935" depart="327.34">
        <route edges="-E9 -E7 E6"/>
    </vehicle>
    <vehicle id="veh3" depart="336.62">
        <route edges="-E13 -E12 E14"/>
    </vehicle>
    <vehicle id="veh48" depart="339.05">
        <route edges="-E10 -E7 -E0 E4"/>
    </vehicle>
    <vehicle id="veh1145" depart="345.40">
        <route edges="-E2 -E1 E0 E7 E10"/>
    </vehicle>
    <vehicle id="veh372" depart="347.71">
        <route edges="-E4 E0 E7 E10"/>
    </vehicle>
    <vehicle id="veh1256" depart="356.20">
        <route edges="-E14 -E8 -E0 E4"/>
    </vehicle>
    <vehicle id="veh1986" depart="356.44">
        <route edges="-E14 -E8 E5 E3 E14"/>
    </vehicle>
    <vehicle id="veh525" depart="362.76">
        <route edges="-E9 E11 -E12 -E8 E7 E9"/>
    </vehicle>
    <vehicle id="veh230" depart="370.75">
        <route edges="-E9 E11 E13"/>
    </vehicle>
    <vehicle id="veh1303" depart="371.79">
        <route edges="-E4 E0 E8 E14"/>
    </vehicle>
    <vehicle id="veh1630" depart="376.51">
        <route edges="-E13 -E12 -E8 E6"/>
    </vehicle>
    <vehicle id="veh1304" depart="376.57">
        <route edges="-E2 E3 E12 E13"/>
    </vehicle>
    <vehicle id="veh658" depart="379.38">
        <route edges="-E14 -E8 E6"/>
    </vehicle>
    <vehicle id="veh17" depart="383.30">
        <route edges="-E2 -E1 E0 E5 E2"/>
    </vehicle>
    <vehicle id="veh1953" depart="391.87">
        <route edges="-E2 -E1 E0 E7 E10"/>
    </vehicle>
    <vehicle id="veh1784" depart="392.13">
        <route edges="-E14 -E8 E7 E10"/>
    </vehicle>
    <vehicle id="veh1978" depart="392.27">
        <route edges="-E2 E3 -E8 E6"/>
    </vehicle>
    <vehicle id="veh1016" depart="406.26">
        <route edges="-E4 E0 E7 E10"/>
    </vehicle>
    <vehicle id="veh943" depart="406.52">
        <route edges="-E6 E5 -E1 E0 E6"/>
    </vehicle>
    <vehicle id="veh1972" depart="408.43">
        <route edges="-E13 -E11 E10"/>
    </vehicle>
    <vehicle id="veh139" depart="410.76">
        <route edges="-E4 E0 E7 E11 E13"/>
    </vehicle>
    <vehicle id="veh797" depart="412.24">
        <route edges="-E14 -E8 E6"/>
    </vehicle>
    <vehicle id="veh1740" depart="417.07">
        <route edges="-E4 E0 E6"/>
    </vehicle>
    <vehicle id="veh1500" depart="417.85">
        <route edges="-E10 E11 E13"/>
    </vehicle>
    <vehicle id="veh302" depart="428.77">
        <route edges="-E4 E0 E7 E11 E13"/>
    </vehicle>
    <vehicle id="veh142" depart="429.42">
        <route edges="-E2 E3 -E8 E6"/>
    </vehicle>
    <vehicle id="veh1883" depart="429.76">
        <route edges="-E10 E11 -E12 -E8 E7 E10"/>
    </vehicle>
    <vehicle id="veh1385" depart="434.05">
        <route edges="-E10 E11 -E12 -E8 E7 E10"/>
    </vehicle>
    <vehicle id="veh968" depart="435.32">
        <route edges="-E6 -E0 E4"/>
    </vehicle>
    <vehicle id="veh1893" depart="436.13">
        <route edges="-E2 -E1 E0 E7 E10"/>
    </vehicle>
    <vehicle id="veh212" depart="437.13">
        <route edges="-E4 E0 E6"/>
    </vehicle>
    <vehicle id="veh269" depart="443.37">
        <route edges="-E4 E0 E7 E10"/>
    </vehicle>
    <vehicle id="veh27" depart="444.73">
        <route edges="-E14 E12 E13"/>
    </vehicle>
    <vehicle id="veh377" depart="451.62">
        <route edges="-E2 E3 E12 E13"/>
    </vehicle>
    <vehicle id="veh1840" depart="452.51">
        <route edges="-E6 E7 E10"/>
    </vehicle>
    <vehicle id="veh43" depart="454.07">
        <route edges="-E4 E0 E7 E10"/>
    </vehicle>
    <vehicle id="veh361" depart="454.63">
        <route edges="-E2 -E1 E0 E7 E10"/>
    </vehicle>
    <vehicle id="veh1382" depart="464.95">
        <route edges="-E13 -E12 -E3 -E1 E4"/>
    </vehicle>
    <vehicle id="veh256" depart="468.38">
        <route edges="-E2 E3 E12 E13"/>
    </vehicle>
    <vehicle id="veh1490" depart="468.92">
        <route edges="-E4 E0 E8 E14"/>
    </vehicle>
    <vehicle id="veh933" depart="469.92">
        <route edges="-E10 E11 E13"/>
    </vehicle>
    <vehicle id="veh977" depart="471.48">
        <route edges="-E4 E0 E6"/>
    </vehicle>
    <vehicle id="veh1548" depart="472.68">
        <route edges="-E4 E0 E6"/>
    </vehicle>
    <vehicle id="veh994" depart="473.01">
        <route edges="-E2 E3 E12 E13"/>
    </vehicle>
    <vehicle id="veh157" depart="476.57">
        <route edges="-E2 E3 -E8 E6"/>
    </vehicle>
    <vehicle id="veh163" depart="479.13">
        <route edges="-E2 E3 -E8 E6"/>
    </vehicle>
    <vehicle id="veh1584" depart="484.59">
        <route edges="-E6 E5 -E1 E0 E6"/>
    </vehicle>
    <vehicle id="veh1138" depart="484.68">
        <route edges="-E13 -E12 -E8 E7 E11 E13"/>
    </vehicle>
    <vehicle id="veh734" depart="485.09">
        <route edges="-E14 -E8 E6"/>
    </vehicle>
    <vehicle id="veh249" depart="486.99">
        <route edges="-E6 E7 E10"/>
    </vehicle>
    <vehicle id="veh1068" depart="491.21">
        <route edges="-E6 E8 E12 E13"/>
    </vehicle>
    <vehicle id="veh244" depart="491.72">
        <route edges="-E9 -E7 E6"/>
    </vehicle>
    <vehicle id="veh715" depart="498.57">
        <route edges="-E10 -E7 E6"/>
    </vehicle>
    <vehicle id="veh1103" depart="504.22">
        <route edges="-E9 -E7 E6"/>
    </vehicle>
    <vehicle id="veh1484" depart="505.55">
        <route edges="-E10 E11 -E12 -E8 E7 E10"/>
    </vehicle>
    <vehicle id="veh196" depart="508.39">
        <route edges="-E9 E11 E13"/>
    </vehicle>
    <vehicle id="veh821" depart="515.70">
        <route edges="-E10 -E7 E6"/>
    </vehicle>
    <vehicle id="veh597" depart="516.25">
        <route edges="-E2 -E1 E0 E7 E10"/>
    </vehicle>
    <vehicle id="veh830" depart="520.92">
        <route edges="-E4 E0 E6"/>
    </vehicle>
    <vehicle id="veh800" depart="528.34">
        <route edges="-E4 E0 E6"/>
    </vehicle>
    <vehicle id="veh779" depart="531.38">
        <route edges="-E13 -E12 -E8 E7 E11 E13"/>
    </vehicle>
    <vehicle id="veh121" depart="531.95">
        <route edges="-E13 -E12 -E8 E7 E11 E13"/>
    </vehicle>
    <vehicle id="veh1975" depart="535.49">
        <route edges="-E9 E11 -E12 E14"/>
    </vehicle>
    <vehicle id="veh792" depart="536.61">
        <route edges="-E9 -E7 E6"/>
    </vehicle>
    <vehicle id="veh1402" depart="548.26">
        <route edges="-E13 -E12 -E8 E7 E11 E13"/>
    </vehicle>
    <vehicle id="veh818" depart="550.72">
        <route edges="-E4 E0 E6"/>
    </vehicle>
    <vehicle id="veh671" depart="551.34">
        <route edges="-E2 E3 E12 E13"/>
    </vehicle>
    <vehicle id="veh1789" depart="552.27">
        <route edges="-E9 -E7 -E0 E4"/>
    </vehicle>
    <vehicle id="veh665" depart="565.22">
        <route edges="-E10 E11 -E12 -E8 E7 E10"/>
    </vehicle>
    <vehicle id="veh1172" depart="566.01">
        <route edges="-E14 E12 E13"/>
    </vehicle>
    <vehicle id="veh1084" depart="566.13">
        <route edges="-E10 E11 -E12 -E8 E7 E10"/>
    </vehicle>
    <vehicle id="veh124" depart="566.46">
        <route edges="-E6 E5 -E1 E0 E6"/>
    </vehicle>
    <vehicle id="veh1080" depart="569.18">
        <route edges="-E9 -E7 E6"/>
    </vehicle>
    <vehicle id="veh1769" depart="571.21">
        <route edges="-E2 -E1 E0 E7 E10"/>
    </vehicle>
    <vehicle id="veh1913" depart="571.33">
        <route edges="-E14 -E8 E6"/>
    </vehicle>
    <vehicle id="veh52" depart="571.86">
        <route edges="-E2 E3 -E8 E6"/>
    </vehicle>
    <vehicle id="veh1462" depart="574.70">
        <route edges="-E10 E11 -E12 -E8 E7 E10"/>
    </vehicle>
    <vehicle id="veh803" depart="575.43">
        <route edges="-E14 -E3 E2"/>
    </vehicle>
    <vehicle id="veh625" depart="577.34">
        <route edges="-E10 E11 E13"/>
    </vehicle>
    <vehicle id="veh778" depart="578.21">
        <route edges="-E14 E12 E13"/>
    </vehicle>
    <vehicle id="veh634" depart="584.44">
        <route edges="-E4 E0 E7 E10"/>
    </vehicle>
    <vehicle id="veh120" depart="587.56">
        <route edges="-E6 E7 E10"/>
    </vehicle>
    <vehicle id="veh1000" depart="590.09">
        <route edges="-E2 E3 E12 E13"/>
    </vehicle>
    <vehicle id="veh359" depart="590.35">
        <route edges="-E6 E8 E12 E13"/>
    </vehicle>
    <vehicle id="veh1666" depart="591.29">
        <route edges="-E4 E0 E7 E11 E13"/>
    </vehicle>
    <vehicle id="veh910" depart="592.06">
        <route edges="-E2 E3 -E8 E6"/>
    </vehicle>
    <vehicle id="veh682" depart="592.66">
        <route edges="-E2 -E1 E0 E7 E10"/>
    </vehicle>
    <vehicle id="veh541" depart="592.90">
        <route edges="-E6 E7 E10"/>
    </vehicle>
    <vehicle id="veh200" depart="593.27">
        <route edges="-E2 E3 E12 E13"/>
    </vehicle>
    <vehicle id="veh1273" depart="595.04">
        <route edges="-E4 E0 E7 E11 E13"/>
    </vehicle>
    <vehicle id="veh1279" depart="601.20">
        <route edges="-E9 E11 E13"/>
    </vehicle>
    <vehicle id="veh1264" depart="601.31">
        <route edges="-E10 E11 -E12 -E8 E7 E10"/>
    </vehicle>
    <vehicle id="veh117" depart="601.62">
        <route edges="-E2 E3 -E8 E6"/>
    </vehicle>
    <vehicle id="veh342" depart="603.32">
        <route edges="-E14 -E8 E6"/>
    </vehicle>
    <vehicle id="veh883" depart="605.25">
        <route edges="-E2 -E1 E0 E5 E2"/>
    </vehicle>
    <vehicle id="veh1871" depart="606.92">
        <route edges="-E4 E0 E6"/>
    </vehicle>
    <vehicle id="veh1576" depart="610.41">
        <route edges="-E10 E11 -E12 -E8 E7 E10"/>
    </vehicle>
    <vehicle id="veh1252" depart="611.96">
        <route edges="-E2 E3 E12 E13"/>
    </vehicle>
    <vehicle id="veh306" depart="612.82">
        <route edges="-E4 E0 E6"/>
    </vehicle>
    <vehicle id="veh1043" depart="613.01">
        <route edges="-E6 E7 E9"/>
    </vehicle>
    <vehicle id="veh50" depart="615.21">
        <route edges="-E2 -E1 E0 E7 E10"/>
    </vehicle>
    <vehicle id="veh469" depart="615.49">
        <route edges="-E6 E8 E12 E13"/>
    </vehicle>
    <vehicle id="veh1819" depart="623.18">
        <route edges="-E6 E7 E10"/>
    </vehicle>
    <vehicle id="veh947" depart="623.52">
        <route edges="-E13 -E12 -E8 E7 E11 E13"/>
    </vehicle>
    <vehicle id="veh811" depart="623.62">
        <route edges="-E10 E11 -E12 -E8 E7 E10"/>
    </vehicle>
    <vehicle id="veh443" depart="623.88">
        <route edges="-E13 -E12 -E8 E7 E11 E13"/>
    </vehicle>
    <vehicle id="veh1336" depart="625.37">
        <route edges="-E6 E8 E12 E13"/>
    </vehicle>
    <vehicle id="veh1434" depart="625.64">
        <route edges="-E2 E3 E12 -E11 E9"/>
    </vehicle>
    <vehicle id="veh769" depart="627.15">
        <route edges="-E2 -E1 E0 E7 E10"/>
    </vehicle>
    <vehicle id="veh118" depart="631.93">
        <route edges="-E6 E8 E12 E13"/>
    </vehicle>
    <vehicle id="veh187" depart="633.32">
        <route edges="-E14 -E8 -E0 E4"/>
    </vehicle>
    <vehicle id="veh1941" depart="633.47">
        <route edges="-E10 E11 -E12 -E8 E7 E10"/>
    </vehicle>
    <vehicle id="veh30" depart="636.86">
        <route edges="-E14 E12 E13"/>
    </vehicle>
    <vehicle id="veh1613" depart="641.31">
        <route edges="-E4 E0 E7 E11 E13"/>
    </vehicle>
    <vehicle id="veh186" depart="641.32">
        <route edges="-E10 -E7 E6"/>
    </vehicle>
    <vehicle id="veh1125" depart="643.03">
        <route edges="-E14 -E8 E7 E10"/>
    </vehicle>
    <vehicle id="veh1060" depart="646.17">
        <route edges="-E2 -E1 E0 E7 E10"/>
    </vehicle>
    <vehicle id="veh1493" depart="647.90">
        <route edges="-E14 E12 E13"/>
    </vehicle>
    <vehicle id="veh1597" depart="648.29">
        <route edges="-E4 E0 E8 E14"/>
    </vehicle>
    <vehicle id="veh1910" depart="651.17">
        <route edges="-E10 E11 E13"/>
    </vehicle>
    <vehicle id="veh1033" depart="653.55">
        <route edges="-E13 -E11 E10"/>
    </vehicle>
    <vehicle id="veh1600" depart="653.73">
        <route edges="-E9 E11 E13"/>
    </vehicle>
    <vehicle id="veh1235" depart="657.65">
        <route edges="-E4 E0 E6"/>
    </vehicle>
    <vehicle id="veh1919" depart="658.81">
        <route edges="-E14 -E8 E7 E10"/>
    </vehicle>
    <vehicle id="veh125" depart="659.71">
        <route edges="-E13 -E11 E10"/>
    </vehicle>
    <vehicle id="veh449" depart="659.79">
        <route edges="-E6 E8 E12 E13"/>
    </vehicle>
    <vehicle id="veh41" depart="661.60">
        <route edges="-E2 -E1 E0 E7 E10"/>
    </vehicle>
    <vehicle id="veh962" depart="661.90">
        <route edges="-E6 E7 E10"/>
    </vehicle>
    <vehicle id="veh198" depart="663.88">
        <route edges="-E13 -E12 -E8 E7 E11 E13"/>
    </vehicle>
    <vehicle id="veh1378" depart="665.14">
        <route edges="-E2 E3 E12 -E11 E9"/>
    </vehicle>
    <vehicle id="veh250" depart="678.40">
        <route edges="-E6 E5 -E1 E0 E6"/>
    </vehicle>
    <vehicle id="veh1122" depart="678.53">
        <route edges="-E6 E7 E10"/>
    </vehicle>
    <vehicle id="veh280" depart="679.95">
        <route edges="-E4 E1 E2"/>
    </vehicle>
    <vehicle id="veh1398" depart="683.22">
        <route edges="-E4 E0 E6"/>
    </vehicle>
    <vehicle id="veh1946" depart="683.43">
        <route edges="-E2 E3 -E8 E6"/>
    </vehicle>
    <vehicle id="veh1477" depart="683.49">
        <route edges="-E9 -E7 -E0 E4"/>
    </vehicle>
    <vehicle id="veh155" depart="684.66">
        <route edges="-E9 E11 E13"/>
    </vehicle>
    <vehicle id="veh1675" depart="684.67">
        <route edges="-E10 -E7 E8 E14"/>
    </vehicle>
    <vehicle id="veh208" depart="684.95">
        <route edges="-E2 E3 E12 E13"/>
    </vehicle>
    <vehicle id="veh1825" depart="686.51">
        <route edges="-E6 E8 E12 E13"/>
    </vehicle>
    <vehicle id="veh316" depart="687.37">
        <route edges="-E13 -E11 E10"/>
    </vehicle>
    <vehicle id="veh1561" depart="689.59">
        <route edges="-E13 -E11 E10"/>
    </vehicle>
    <vehicle id="veh1583" depart="690.73">
        <route edges="-E9 E10"/>
    </vehicle>
    <vehicle id="veh1632" depart="692.97">
        <route edges="-E2 E3 E14"/>
    </vehicle>
    <vehicle id="veh290" depart="695.17">
        <route edges="-E13 -E12 -E8 E7 E11 E13"/>
    </vehicle>
    <vehicle id="veh1207" depart="696.56">
        <route edges="-E14 E12 -E11 E9"/>
    </vehicle>
    <vehicle id="veh467" depart="698.93">
        <route edges="-E13 -E12 -E3 -E1 E4"/>
    </vehicle>
    <vehicle id="veh1260" depart="698.96">
        <route edges="-E13 -E12 -E8 E7 E11 E13"/>
    </vehicle>
    <vehicle id="veh558" depart="699.19">
        <route edges="-E13 -E12 -E8 E6"/>
    </vehicle>
    <vehicle id="veh1083" depart="700.22">
        <route edges="-E10 -E7 E5 E2"/>
    </vehicle>
    <vehicle id="veh1204" depart="702.59">
        <route edges="-E10 -E7 E6"/>
    </vehicle>
    <vehicle id="veh851" depart="704.82">
        <route edges="-E9 E11 E13"/>
    </vehicle>
    <vehicle id="veh1297" depart="711.30">
        <route edges="-E9 -E7 E6"/>
    </vehicle>
    <vehicle id="veh1021" depart="712.14">
        <route edges="-E13 -E12 -E8 E6"/>
    </vehicle>
    <vehicle id="veh1531" depart="712.89">
        <route edges="-E13 -E12 -E8 E6"/>
    </vehicle>
    <vehicle id="veh1284" depart="713.04">
        <route edges="-E2 E3 -E8 E6"/>
    </vehicle>
    <vehicle id="veh855" depart="714.59">
        <route edges="-E10 E11 -E12 -E8 E7 E10"/>
    </vehicle>
    <vehicle id="veh826" depart="723.11">
        <route edges="-E2 E3 E12 E13"/>
    </vehicle>
    <vehicle id="veh384" depart="723.62">
        <route edges="-E2 E3 E12 E13"/>
    </vehicle>
    <vehicle id="veh1763" depart="724.95">
        <route edges="-E6 E8 E12 E13"/>
    </vehicle>
    <vehicle id="veh487" depart="725.00">
        <route edges="-E4 E0 E6"/>
    </vehicle>
    <vehicle id="veh141" depart="725.49">
        <route edges="-E4 E0 E7 E11 E13"/>
    </vehicle>
    <vehicle id="veh499" depart="727.06">
        <route edges="-E2 E3 -E8 E6"/>
    </vehicle>
    <vehicle id="veh459" depart="727.18">
        <route edges="-E10 -E7 E6"/>
    </vehicle>
    <vehicle id="veh1263" depart="727.53">
        <route edges="-E6 E5 -E1 E0 E6"/>
    </vehicle>
    <vehicle id="veh1684" depart="728.31">
        <route edges="-E6 E8 E12 E13"/>
    </vehicle>
    <vehicle id="veh823" depart="728.67">
        <route edges="-E9 E10"/>
    </vehicle>
    <vehicle id="veh166" depart="730.04">
        <route edges="-E4 E0 E7 E11 E13"/>
    </vehicle>
    <vehicle id="veh783" depart="731.32">
        <route edges="-E9 -E7 -E0 E4"/>
    </vehicle>
    <vehicle id="veh1127" depart="732.09">
        <route edges="-E6 E7 E10"/>
    </vehicle>
    <vehicle id="veh172" depart="732.64">
        <route edges="-E6 E8 E14"/>
    </vehicle>
    <vehicle id="veh1836" depart="733.98">
        <route edges="-E13 -E11 E10"/>
    </vehicle>
    <vehicle id="veh9" depart="736.50">
        <route edges="-E14 -E8 E7 E10"/>
    </vehicle>
    <vehicle id="veh587" depart="738.67">
        <route edges="-E14 E12 E13"/>
    </vehicle>
    <vehicle id="veh1519" depart="743.05">
        <route edges="-E2 -E1 E0 E7 E10"/>
    </vehicle>
    <vehicle id="veh1894" depart="743.79">
        <route edges="-E6 E7 E10"/>
    </vehicle>
    <vehicle id="veh1822" depart="744.96">
        <route edges="-E10 E11 -E12 -E8 E7 E10"/>
    </vehicle>
    <vehicle id="veh755" depart="747.18">
        <route edges="-E13 -E12 -E3 E2"/>
    </vehicle>
    <vehicle id="veh575" depart="750.28">
        <route edges="-E14 E12 E13"/>
    </vehicle>
    <vehicle id="veh16" depart="750.62">
        <route edges="-E6 E5 E2"/>
    </vehicle>
    <vehicle id="veh876" depart="751.01">
        <route edges="-E6 E7 E10"/>
    </vehicle>
    <vehicle id="veh1988" depart="752.69">
        <route edges="-E6 E5 -E1 E0 E6"/>
    </vehicle>
    <vehicle id="veh739" depart="753.43">
        <route edges="-E9 E11 E13"/>
    </vehicle>
    <vehicle id="veh520" depart="754.05">
        <route edges="-E9 E11 -E12 E14"/>
    </vehicle>
    <vehicle id="veh406" depart="754.28">
        <route edges="-E9 -E7 E6"/>
    </vehicle>
    <vehicle id="veh1950" depart="756.59">
        <route edges="-E6 E8 E12 E13"/>
    </vehicle>
    <vehicle id="veh829" depart="764.58">
        <route edges="-E14 E12 E13"/>
    </vehicle>
    <vehicle id="veh1927" depart="766.40">
        <route edges="-E13 -E11 E10"/>
    </vehicle>
    <vehicle id="veh1870" depart="768.96">
        <route edges="-E9 E11 -E12 E14"/>
    </vehicle>
    <vehicle id="veh521" depart="771.53">
        <route edges="-E10 -E7 E6"/>
    </vehicle>
    <vehicle id="veh1973" depart="771.83">
        <route edges="-E14 E12 E13"/>
    </vehicle>
    <vehicle id="veh511" depart="772.21">
        <route edges="-E13 -E12 -E8 E7 E11 E13"/>
    </vehicle>
    <vehicle id="veh997" depart="773.93">
        <route edges="-E13 -E12 -E8 E6"/>
    </vehicle>
    <vehicle id="veh1289" depart="774.21">
        <route edges="-E10 E11 E13"/>
    </vehicle>
    <vehicle id="veh1698" depart="783.49">
        <route edges="-E10 E11 E13"/>
    </vehicle>
    <vehicle id="veh1130" depart="785.37">
        <route edges="-E10 E11 -E12 -E8 E7 E10"/>
    </vehicle>
    <vehicle id="veh1513" depart="789.42">
        <route edges="-E10 E11 -E12 -E8 E7 E10"/>
    </vehicle>
    <vehicle id="veh1567" depart="790.29">
        <route edges="-E13 -E11 E10"/>
    </vehicle>
    <vehicle id="veh1255" depart="792.58">
        <route edges="-E14 -E8 E7 E10"/>
    </vehicle>
    <vehicle id="veh94" depart="792.61">
        <route edges="-E2 E3 -E8 E6"/>
    </vehicle>
    <vehicle id="veh710" depart="793.26">
        <route edges="-E13 -E11 E10"/>
    </vehicle>
    <vehicle id="veh512" depart="793.38">
        <route edges="-E10 E11 E13"/>
    </vehicle>
    <vehicle id="veh437" depart="794.63">
        <route edges="-E9 -E7 E6"/>
    </vehicle>
    <vehicle id="veh1045" depart="794.64">
        <route edges="-E2 -E1 E0 E5 E2"/>
    </vehicle>
    <vehicle id="veh1593" depart="794.70">
        <route edges="-E13 -E12 -E8 E6"/>
    </vehicle>
    <vehicle id="veh1374" depart="796.92">
        <route edges="-E14 -E8 E7 E10"/>
    </vehicle>
    <vehicle id="veh0" depart="801.74">
        <route edges="-E2 E3 E12 E13"/>
    </vehicle>
    <vehicle id="veh169" depart="803.44">
        <route edges="-E9 -E7 E6"/>
    </vehicle>
    <vehicle id="veh1907" depart="804.44">
        <route edges="-E2 E3 E12 E13"/>
    </vehicle>
    <vehicle id="veh1815" depart="806.60">
        <route edges="-E10 E11 E13"/>
    </vehicle>
    <vehicle id="veh222" depart="810.42">
        <route edges="-E9 E11 E13"/>
    </vehicle>
    <vehicle id="veh1780" depart="810.68">
        <route edges="-E2 E3 E14"/>
    </vehicle>
    <vehicle id="veh1908" depart="812.15">
        <route edges="-E14 -E8 E6"/>
    </vehicle>
    <vehicle id="veh278" depart="813.44">
        <route edges="-E10 E11 -E12 -E8 E7 E10"/>
    </vehicle>
    <vehicle id="veh403" depart="814.21">
        <route edges="-E9 -E7 E6"/>
    </vehicle>
    <vehicle id="veh1761" depart="814.79">
        <route edges="-E9 E10"/>
    </vehicle>
    <vehicle id="veh1515" depart="818.26">
        <route edges="-E6 E8 E12 E13"/>
    </vehicle>
    <vehicle id="veh533" depart="821.26">
        <route edges="-E6 E5 -E1 E0 E6"/>
    </vehicle>
    <vehicle id="veh1649" depart="823.27">
        <route edges="-E14 E12 E13"/>
    </vehicle>
    <vehicle id="veh894" depart="824.54">
        <route edges="-E13 -E11 E10"/>
    </vehicle>
    <vehicle id="veh1685" depart="825.90">
        <route edges="-E10 E11 E13"/>
    </vehicle>
    <vehicle id="veh909" depart="827.87">
        <route edges="-E14 E12 -E11 E9"/>
    </vehicle>
    <vehicle id="veh1301" depart="831.11">
        <route edges="-E14 -E8 E6"/>
    </vehicle>
    <vehicle id="veh1393" depart="831.39">
        <route edges="-E10 -E7 E6"/>
    </vehicle>
    <vehicle id="veh1795" depart="839.44">
        <route edges="-E4 E0 E7 E9"/>
    </vehicle>
    <vehicle id="veh390" depart="840.62">
        <route edges="-E2 -E1 E0 E7 E10"/>
    </vehicle>
    <vehicle id="veh1653" depart="843.94">
        <route edges="-E14 -E8 E7 E10"/>
    </vehicle>
    <vehicle id="veh1306" depart="844.55">
        <route edges="-E2 E3 -E8 E6"/>
    </vehicle>
    <vehicle id="veh1650" depart="846.34">
        <route edges="-E10 E11 E13"/>
    </vehicle>
    <vehicle id="veh1821" depart="846.89">
        <route edges="-E9 -E7 E6"/>
    </vehicle>
    <vehicle id="veh1290" depart="850.76">
        <route edges="-E10 -E7 -E0 E4"/>
    </vehicle>
    <vehicle id="veh104" depart="860.09">
        <route edges="-E4 E0 E8 E14"/>
    </vehicle>
    <vehicle id="veh366" depart="860.18">
        <route edges="-E13 -E12 -E8 E7 E11 E13"/>
    </vehicle>
    <vehicle id="veh931" depart="864.13">
        <route edges="-E9 E10"/>
    </vehicle>
    <vehicle id="veh1007" depart="864.56">
        <route edges="-E4 E0 E7 E10"/>
    </vehicle>
    <vehicle id="veh1677" depart="868.72">
        <route edges="-E2 -E1 E0 E7 E10"/>
    </vehicle>
    <vehicle id="veh1117" depart="870.15">
        <route edges="-E9 E10"/>
    </vehicle>
    <vehicle id="veh418" depart="870.22">
        <route edges="-E13 -E12 -E8 E6"/>
    </vehicle>
    <vehicle id="veh1750" depart="871.02">
        <route edges="-E13 -E11 E10"/>
    </vehicle>
    <vehicle id="veh10" depart="872.31">
        <route edges="-E6 E5 -E1 E0 E6"/>
    </vehicle>
    <vehicle id="veh1091" depart="875.31">
        <route edges="-E6 E7 E10"/>
    </vehicle>
    <vehicle id="veh586" depart="876.19">
        <route edges="-E14 E12 E13"/>
    </vehicle>
    <vehicle id="veh1362" depart="876.20">
        <route edges="-E9 E11 E13"/>
    </vehicle>
    <vehicle id="veh1386" depart="876.98">
        <route edges="-E2 E3 -E8 E6"/>
    </vehicle>
    <vehicle id="veh951" depart="877.67">
        <route edges="-E9 E10"/>
    </vehicle>
    <vehicle id="veh336" depart="878.14">
        <route edges="-E9 E11 E13"/>
    </vehicle>
    <vehicle id="veh1523" depart="878.76">
        <route edges="-E4 E0 E6"/>
    </vehicle>
    <vehicle id="veh647" depart="884.93">
        <route edges="-E9 E11 -E12 E14"/>
    </vehicle>
    <vehicle id="veh1543" depart="886.75">
        <route edges="-E10 E11 E13"/>
    </vehicle>
    <vehicle id="veh1265" depart="887.34">
        <route edges="-E10 -E7 E6"/>
    </vehicle>
    <vehicle id="veh985" depart="888.40">
        <route edges="-E14 -E3 E2"/>
    </vehicle>
    <vehicle id="veh936" depart="888.54">
        <route edges="-E6 E8 E14"/>
    </vehicle>
    <vehicle id="veh1848" depart="891.15">
        <route edges="-E10 -E7 E6"/>
    </vehicle>
    <vehicle id="veh1088" depart="891.55">
        <route edges="-E14 -E8 E6"/>
    </vehicle>
    <vehicle id="veh882" depart="892.12">
        <route edges="-E9 E10"/>
    </vehicle>