<?xml version="1.0" encoding="UTF-8"?>

<!-- generated on 2026-06-15T16:41:05.496107+01:00 by Eclipse SUMO duarouter 1.27.0
<duarouterConfiguration xmlns:xsi="http://www.w3.org/2001/XMLSchema-instance" xsi:noNamespaceSchemaLocation="http://sumo.dlr.de/xsd/duarouterConfiguration.xsd">

    <input>
        <net-file value="C:\Users\RODO\Desktop\Sys auto - Projekt\src\City_map_2\city2.net.xml"/>
        <route-files value="C:\Users\RODO\AppData\Local\Temp\city2_train_1.trips.xml"/>
    </input>

    <output>
        <output-file value="C:\Users\RODO\Desktop\Sys auto - Projekt\src\City_map_2\city2_train_1.rou.xml"/>
    </output>

    <report>
        <no-warnings value="true"/>
        <ignore-errors value="true"/>
    </report>

    <random_number>
        <seed value="1001"/>
    </random_number>

</duarouterConfiguration>
-->

<routes xmlns:xsi="http://www.w3.org/2001/XMLSchema-instance" xsi:noNamespaceSchemaLocation="http://sumo.dlr.de/xsd/routes_file.xsd">
    <vehicle id="veh321" depart="4.47">
        <route edges="-E14 E12 E13"/>
    </vehicle>
    <vehicle id="veh1026" depart="6.09">
        <route edges="-E6 -E0 E4"/>
    </vehicle>
    <vehicle id="veh48" depart="6.65">
        <route edges="-E2 E3 E12 -E11 E9"/>
    </vehicle>
    <vehicle id="veh348" depart="9.57">
        <route edges="-E9 E10"/>
    </vehicle>
    <vehicle id="veh1095" depart="10.35">
        <route edges="-E13 -E11 E10"/>
    </vehicle>
    <vehicle id="veh823" depart="12.14">
        <route edges="-E14 -E8 E7 E10"/>
    </vehicle>
    <vehicle id="veh83" depart="14.16">
        <route edges="-E14 -E8 -E0 E4"/>
    </vehicle>
    <vehicle id="veh409" depart="16.03">
        <route edges="-E10 E11 E13"/>
    </vehicle>
    <vehicle id="veh1075" depart="18.59">
        <route edges="-E13 -E12 -E3 -E1 E4"/>
    </vehicle>
    <vehicle id="veh675" depart="18.79">
        <route edges="-E10 E11 E13"/>
    </vehicle>
    <vehicle id="veh474" depart="21.64">
        <route edges="-E6 E5 -E1 E0 E6"/>
    </vehicle>
    <vehicle id="veh850" depart="21.98">
        <route edges="-E6 E5 -E1 E0 E6"/>
    </vehicle>
    <vehicle id="veh1168" depart="24.83">
        <route edges="-E9 -E7 -E0 E4"/>
    </vehicle>
    <vehicle id="veh982" depart="25.23">
        <route edges="-E10 -E7 E5 E2"/>
    </vehicle>
    <vehicle id="veh745" depart="25.40">
        <route edges="-E10 -E7 E8 E14"/>
    </vehicle>
    <vehicle id="veh554" depart="31.14">
        <route edges="-E10 E11 E13"/>
    </vehicle>
    <vehicle id="veh282" depart="34.68">
        <route edges="-E6 -E0 E4"/>
    </vehicle>
    <vehicle id="veh769" depart="36.07">
        <route edges="-E13 -E12 E14"/>
    </vehicle>
    <vehicle id="veh267" depart="36.44">
        <route edges="-E6 E8 E12 E13"/>
    </vehicle>
    <vehicle id="veh633" depart="38.39">
        <route edges="-E6 E5 E2"/>
    </vehicle>
    <vehicle id="veh786" depart="38.54">
        <route edges="-E6 E7 E10"/>
    </vehicle>
    <vehicle id="veh482" depart="39.65">
        <route edges="-E6 E8 E12 E13"/>
    </vehicle>
    <vehicle id="veh449" depart="43.09">
        <route edges="-E10 -E7 E6"/>
    </vehicle>
    <vehicle id="veh443" depart="43.19">
        <route edges="-E13 -E12 -E8 E7 E11 E13"/>
    </vehicle>
    <vehicle id="veh728" depart="44.17">
        <route edges="-E2 -E1 E0 E7 E10"/>
    </vehicle>
    <vehicle id="veh1165" depart="49.01">
        <route edges="-E10 -E7 E6"/>
    </vehicle>
    <vehicle id="veh562" depart="52.37">
        <route edges="-E2 E3 -E8 E6"/>
    </vehicle>
    <vehicle id="veh322" depart="52.71">
        <route edges="-E4 E0 E8 E14"/>
    </vehicle>
    <vehicle id="veh1127" depart="53.44">
        <route edges="-E9 E10"/>
    </vehicle>
    <vehicle id="veh125" depart="54.26">
        <route edges="-E9 E11 E13"/>
    </vehicle>
    <vehicle id="veh7" depart="56.97">
        <route edges="-E6 E8 E12 E13"/>
    </vehicle>
    <vehicle id="veh804" depart="57.95">
        <route edges="-E2 E3 -E8 E6"/>
    </vehicle>
    <vehicle id="veh1009" depart="58.80">
        <route edges="-E10 -E7 E8 E14"/>
    </vehicle>
    <vehicle id="veh86" depart="61.16">
        <route edges="-E10 -E7 E6"/>
    </vehicle>
    <vehicle id="veh116" depart="61.96">
        <route edges="-E9 -E7 E6"/>
    </vehicle>
    <vehicle id="veh989" depart="72.25">
        <route edges="-E4 E0 E7 E10"/>
    </vehicle>
    <vehicle id="veh895" depart="72.94">
        <route edges="-E13 -E12 -E8 E7 E11 E13"/>
    </vehicle>
    <vehicle id="veh862" depart="73.05">
        <route edges="-E4 E0 E6"/>
    </vehicle>
    <vehicle id="veh1194" depart="74.61">
        <route edges="-E4 E0 E7 E10"/>
    </vehicle>
    <vehicle id="veh614" depart="79.06">
        <route edges="-E4 E0 E6"/>
    </vehicle>
    <vehicle id="veh1034" depart="80.53">
        <route edges="-E6 E5 E2"/>
    </vehicle>
    <vehicle id="veh269" depart="81.41">
        <route edges="-E10 E9"/>
    </vehicle>
    <vehicle id="veh822" depart="83.88">
        <route edges="-E13 -E12 -E8 E6"/>
    </vehicle>
    <vehicle id="veh355" depart="85.00">
        <route edges="-E6 E5 E2"/>
    </vehicle>
    <vehicle id="veh920" depart="86.06">
        <route edges="-E2 -E1 E0 E5 E2"/>
    </vehicle>
    <vehicle id="veh137" depart="88.25">
        <route edges="-E14 -E8 E7 E10"/>
    </vehicle>
    <vehicle id="veh258" depart="88.58">
        <route edges="-E2 -E1 E0 E7 E10"/>
    </vehicle>
    <vehicle id="veh958" depart="90.64">
        <route edges="-E14 -E8 E7 E10"/>
    </vehicle>
    <vehicle id="veh826" depart="96.76">
        <route edges="-E10 E11 -E12 -E8 E7 E10"/>
    </vehicle>
    <vehicle id="veh1104" depart="105.61">
        <route edges="-E4 E0 E5 -E1 E4"/>
    </vehicle>
    <vehicle id="veh35" depart="105.67">
        <route edges="-E14 -E8 -E0 E4"/>
    </vehicle>
    <vehicle id="veh868" depart="106.12">
        <route edges="-E10 -E7 E6"/>
    </vehicle>
    <vehicle id="veh935" depart="110.55">
        <route edges="-E2 E3 E12 E13"/>
    </vehicle>
    <vehicle id="veh94" depart="113.67">
        <route edges="-E14 -E8 -E0 E4"/>
    </vehicle>
    <vehicle id="veh1042" depart="114.91">
        <route edges="-E14 -E8 -E0 E4"/>
    </vehicle>
    <vehicle id="veh906" depart="118.70">
        <route edges="-E2 E3 -E8 E6"/>
    </vehicle>
    <vehicle id="veh643" depart="120.90">
        <route edges="-E4 E0 E7 E11 E13"/>
    </vehicle>
    <vehicle id="veh1186" depart="124.42">
        <route edges="-E14 -E8 E5 E3 E14"/>
    </vehicle>
    <vehicle id="veh92" depart="126.25">
        <route edges="-E14 E12 E13"/>
    </vehicle>
    <vehicle id="veh1142" depart="126.34">
        <route edges="-E9 E11 -E12 E14"/>
    </vehicle>
    <vehicle id="veh1120" depart="129.54">
        <route edges="-E14 -E8 E7 E10"/>
    </vehicle>
    <vehicle id="veh884" depart="131.50">
        <route edges="-E10 -E7 E6"/>
    </vehicle>
    <vehicle id="veh583" depart="133.50">
        <route edges="-E14 -E8 E7 E10"/>
    </vehicle>
    <vehicle id="veh270" depart="135.03">
        <route edges="-E2 -E1 E4"/>
    </vehicle>
    <vehicle id="veh909" depart="135.89">
        <route edges="-E6 E5 -E1 E0 E6"/>
    </vehicle>
    <vehicle id="veh857" depart="136.74">
        <route edges="-E4 E0 E7 E10"/>
    </vehicle>
    <vehicle id="veh60" depart="139.02">
        <route edges="-E2 E3 -E8 E6"/>
    </vehicle>
    <vehicle id="veh234" depart="141.87">
        <route edges="-E14 -E8 E5 E3 E14"/>
    </vehicle>
    <vehicle id="veh687" depart="143.40">
        <route edges="-E9 -E7 E6"/>
    </vehicle>
    <vehicle id="veh1138" depart="149.64">
        <route edges="-E14 E12 E13"/>
    </vehicle>
    <vehicle id="veh82" depart="149.73">
        <route edges="-E14 E12 E13"/>
    </vehicle>
    <vehicle id="veh1139" depart="150.56">
        <route edges="-E10 -E7 -E0 E4"/>
    </vehicle>
    <vehicle id="veh1063" depart="151.06">
        <route edges="-E6 E7 E10"/>
    </vehicle>
    <vehicle id="veh141" depart="151.44">
        <route edges="-E9 -E7 E6"/>
    </vehicle>
    <vehicle id="veh261" depart="153.75">
        <route edges="-E10 E11 -E12 -E8 E7 E10"/>
    </vehicle>
    <vehicle id="veh385" depart="153.83">
        <route edges="-E9 E11 E13"/>
    </vehicle>
    <vehicle id="veh362" depart="156.99">
        <route edges="-E14 -E8 E6"/>
    </vehicle>
    <vehicle id="veh1068" depart="158.38">
        <route edges="-E10 E11 E13"/>
    </vehicle>
    <vehicle id="veh1126" depart="160.40">
        <route edges="-E14 -E8 E7 E10"/>
    </vehicle>
    <vehicle id="veh978" depart="165.12">
        <route edges="-E13 -E12 -E8 E6"/>
    </vehicle>
    <vehicle id="veh177" depart="173.21">
        <route edges="-E6 E5 -E1 E0 E6"/>
    </vehicle>
    <vehicle id="veh586" depart="173.83">
        <route edges="-E2 -E1 E0 E7 E10"/>
    </vehicle>
    <vehicle id="veh34" depart="179.43">
        <route edges="-E4 E1 E2"/>
    </vehicle>
    <vehicle id="veh1197" depart="179.78">
        <route edges="-E6 E5 -E1 E0 E6"/>
    </vehicle>
    <vehicle id="veh495" depart="181.11">
        <route edges="-E10 -E7 -E0 E4"/>
    </vehicle>
    <vehicle id="veh644" depart="183.81">
        <route edges="-E9 E11 -E12 -E8 E7 E9"/>
    </vehicle>
    <vehicle id="veh569" depart="184.86">
        <route edges="-E4 E0 E7 E11 E13"/>
    </vehicle>
    <vehicle id="veh623" depart="184.90">
        <route edges="-E2 E3 -E8 E6"/>
    </vehicle>
    <vehicle id="veh770" depart="188.12">
        <route edges="-E14 -E8 E7 E10"/>
    </vehicle>
    <vehicle id="veh991" depart="191.72">
        <route edges="-E10 -E7 E5 E2"/>
    </vehicle>
    <vehicle id="veh534" depart="194.14">
        <route edges="-E4 E0 E7 E10"/>
    </vehicle>
    <vehicle id="veh753" depart="194.40">
        <route edges="-E13 -E12 -E8 E6"/>
    </vehicle>
    <vehicle id="veh117" depart="197.58">
        <route edges="-E13 -E12 -E8 E7 E11 E13"/>
    </vehicle>
    <vehicle id="veh306" depart="199.55">
        <route edges="-E13 -E12 E14"/>
    </vehicle>
    <vehicle id="veh1162" depart="201.86">
        <route edges="-E10 E11 E13"/>
    </vehicle>
    <vehicle id="veh334" depart="206.13">
        <route edges="-E10 -E7 E5 E2"/>
    </vehicle>
    <vehicle id="veh393" depart="208.59">
        <route edges="-E13 -E11 E10"/>
    </vehicle>
    <vehicle id="veh99" depart="213.47">
        <route edges="-E4 E0 E6"/>
    </vehicle>
    <vehicle id="veh642" depart="214.03">
        <route edges="-E6 E7 E10"/>
    </vehicle>
    <vehicle id="veh423" depart="215.04">
        <route edges="-E14 -E3 E2"/>
    </vehicle>
    <vehicle id="veh706" depart="216.04">
        <route edges="-E13 -E12 -E8 E7 E11 E13"/>
    </vehicle>
    <vehicle id="veh160" depart="216.77">
        <route edges="-E2 -E1 E0 E7 E10"/>
    </vehicle>
    <vehicle id="veh396" depart="225.35">
        <route edges="-E9 E10"/>
    </vehicle>
    <vehicle id="veh1195" depart="242.52">
        <route edges="-E10 -E7 E6"/>
    </vehicle>
    <vehicle id="veh955" depart="242.79">
        <route edges="-E4 E0 E6"/>
    </vehicle>
    <vehicle id="veh519" depart="243.03">
        <route edges="-E2 E3 -E8 E6"/>
    </vehicle>
    <vehicle id="veh412" depart="245.74">
        <route edges="-E6 E7 E10"/>
    </vehicle>
    <vehicle id="veh748" depart="246.61">
        <route edges="-E6 E8 E12 E13"/>
    </vehicle>
    <vehicle id="veh842" depart="247.72">
        <route edges="-E9 E10"/>
    </vehicle>
    <vehicle id="veh508" depart="251.71">
        <route edges="-E6 E8 E12 E13"/>
    </vehicle>
    <vehicle id="veh131" depart="255.18">
        <route edges="-E10 -E7 E5 E2"/>
    </vehicle>
    <vehicle id="veh797" depart="257.23">
        <route edges="-E13 -E12 -E8 E6"/>
    </vehicle>
    <vehicle id="veh523" depart="257.44">
        <route edges="-E10 E11 E13"/>
    </vehicle>
    <vehicle id="veh806" depart="257.54">
        <route edges="-E14 -E8 E5 E3 E14"/>
    </vehicle>
    <vehicle id="veh1119" depart="262.86">
        <route edges="-E14 -E8 E6"/>
    </vehicle>
    <vehicle id="veh459" depart="263.75">
        <route edges="-E10 E11 -E12 -E8 E7 E10"/>
    </vehicle>
    <vehicle id="veh503" depart="264.49">
        <route edges="-E2 E3 E14"/>
    </vehicle>
    <vehicle id="veh128" depart="265.31">
        <route edges="-E4 E0 E7 E11 E13"/>
    </vehicle>
    <vehicle id="veh283" depart="266.01">
        <route edges="-E10 -E7 E6"/>
    </vehicle>
    <vehicle id="veh754" depart="267.28">
        <route edges="-E6 E5 -E1 E0 E6"/>
    </vehicle>
    <vehicle id="veh10" depart="267.81">
        <route edges="-E10 E11 -E12 -E8 E7 E10"/>
    </vehicle>
    <vehicle id="veh638" depart="269.76">
        <route edges="-E9 E11 -E12 E14"/>
    </vehicle>
    <vehicle id="veh630" depart="273.95">
        <route edges="-E4 E0 E7 E11 E13"/>
    </vehicle>
    <vehicle id="veh724" depart="276.21">
        <route edges="-E2 E3 -E8 E6"/>
    </vehicle>
    <vehicle id="veh657" depart="277.14">
        <route edges="-E10 E11 -E12 -E8 E7 E10"/>
    </vehicle>
    <vehicle id="veh1055" depart="278.53">
        <route edges="-E2 E3 E12 E13"/>
    </vehicle>
    <vehicle id="veh366" depart="282.39">
        <route edges="-E4 E0 E6"/>
    </vehicle>
    <vehicle id="veh1106" depart="282.79">
        <route edges="-E14 -E8 E6"/>
    </vehicle>
    <vehicle id="veh600" depart="284.96">
        <route edges="-E4 E0 E7 E9"/>
    </vehicle>
    <vehicle id="veh194" depart="286.98">
        <route edges="-E9 E11 -E12 -E8 E7 E9"/>
    </vehicle>
    <vehicle id="veh154" depart="289.97">
        <route edges="-E10 -E7 E5 E2"/>
    </vehicle>
    <vehicle id="veh1008" depart="290.48">
        <route edges="-E6 E5 E2"/>
    </vehicle>
    <vehicle id="veh399" depart="290.84">
        <route edges="-E14 E12 E13"/>
    </vehicle>
    <vehicle id="veh301" depart="291.94">
        <route edges="-E4 E0 E7 E11 E13"/>
    </vehicle>
    <vehicle id="veh406" depart="297.37">
        <route edges="-E9 E10"/>
    </vehicle>
    <vehicle id="veh1082" depart="297.46">
        <route edges="-E13 -E11 E9"/>
    </vehicle>
    <vehicle id="veh383" depart="311.97">
        <route edges="-E9 -E7 E6"/>
    </vehicle>
    <vehicle id="veh720" depart="313.20">
        <route edges="-E6 E5 E2"/>
    </vehicle>
    <vehicle id="veh507" depart="314.47">
        <route edges="-E2 E3 E14"/>
    </vehicle>
    <vehicle id="veh730" depart="318.34">
        <route edges="-E14 -E8 E7 E10"/>
    </vehicle>
    <vehicle id="veh111" depart="321.02">
        <route edges="-E2 -E1 E4"/>
    </vehicle>
    <vehicle id="veh389" depart="329.62">
        <route edges="-E13 -E12 -E8 E7 E11 E13"/>
    </vehicle>
    <vehicle id="veh556" depart="331.45">
        <route edges="-E2 -E1 E0 E7 E10"/>
    </vehicle>
    <vehicle id="veh807" depart="335.46">
        <route edges="-E10 E11 -E12 -E8 E7 E10"/>
    </vehicle>
    <vehicle id="veh646" depart="342.23">
        <route edges="-E2 E3 -E8 E6"/>
    </vehicle>
    <vehicle id="veh1170" depart="343.28">
        <route edges="-E10 -E7 -E0 E4"/>
    </vehicle>
    <vehicle id="veh40" depart="351.91">
        <route edges="-E10 -E7 E5 E2"/>
    </vehicle>
    <vehicle id="veh619" depart="354.88">
        <route edges="-E9 -E7 E6"/>
    </vehicle>
    <vehicle id="veh1071" depart="355.09">
        <route edges="-E13 -E12 -E8 E7 E11 E13"/>
    </vehicle>
    <vehicle id="veh69" depart="357.31">
        <route edges="-E13 -E12 -E8 E7 E11 E13"/>
    </vehicle>
    <vehicle id="veh1133" depart="364.66">
        <route edges="-E2 E3 -E8 E6"/>
    </vehicle>
    <vehicle id="veh397" depart="365.05">
        <route edges="-E9 E11 -E12 -E8 E7 E9"/>
    </vehicle>
    <vehicle id="veh346" depart="370.80">
        <route edges="-E13 -E11 E10"/>
    </vehicle>
    <vehicle id="veh162" depart="371.01">
        <route edges="-E9 E11 E13"/>
    </vehicle>
    <vehicle id="veh1036" depart="372.82">
        <route edges="-E10 -E7 E6"/>
    </vehicle>
    <vehicle id="veh953" depart="373.19">
        <route edges="-E14 -E8 E7 E10"/>
    </vehicle>
    <vehicle id="veh185" depart="377.17">
        <route edges="-E2 -E1 E0 E7 E10"/>
    </vehicle>
    <vehicle id="veh214" depart="377.96">
        <route edges="-E13 -E12 -E3 -E1 E4"/>
    </vehicle>
    <vehicle id="veh315" depart="384.18">
        <route edges="-E2 E3 -E8 E6"/>
    </vehicle>
    <vehicle id="veh949" depart="384.47">
        <route edges="-E13 -E12 -E3 E2"/>
    </vehicle>
    <vehicle id="veh799" depart="384.95">
        <route edges="-E14 -E8 -E0 E4"/>
    </vehicle>
    <vehicle id="veh1025" depart="385.56">
        <route edges="-E10 -E7 E5 E2"/>
    </vehicle>
    <vehicle id="veh581" depart="401.68">
        <route edges="-E14 -E8 -E0 E4"/>
    </vehicle>
    <vehicle id="veh238" depart="405.66">
        <route edges="-E6 E7 E10"/>
    </vehicle>
    <vehicle id="veh308" depart="407.34">
        <route edges="-E10 -E7 E6"/>
    </vehicle>
    <vehicle id="veh522" depart="412.99">
        <route edges="-E6 E8 E12 E13"/>
    </vehicle>
    <vehicle id="veh746" depart="414.69">
        <route edges="-E4 E0 E8 E14"/>
    </vehicle>
    <vehicle id="veh1065" depart="415.85">
        <route edges="-E9 E10"/>
    </vehicle>
    <vehicle id="veh487" depart="425.25">
        <route edges="-E14 E12 -E11 E9"/>
    </vehicle>
    <vehicle id="veh714" depart="428.13">
        <route edges="-E6 E8 E12 E13"/>
    </vehicle>
    <vehicle id="veh1035" depart="430.22">
        <route edges="-E10 -E7 E6"/>
    </vehicle>
    <vehicle id="veh473" depart="430.51">
        <route edges="-E6 E5 E2"/>
    </vehicle>
    <vehicle id="veh483" depart="439.13">
        <route edges="-E9 -E7 E5 E2"/>
    </vehicle>
    <vehicle id="veh795" depart="440.24">
        <route edges="-E10 E11 E13"/>
    </vehicle>
    <vehicle id="veh307" depart="444.74">
        <route edges="-E9 E10"/>
    </vehicle>
    <vehicle id="veh869" depart="445.50">
        <route edges="-E14 -E8 E6"/>
    </vehicle>
    <vehicle id="veh11" depart="447.27">
        <route edges="-E14 -E8 E6"/>
    </vehicle>
    <vehicle id="veh347" depart="450.85">
        <route edges="-E10 E11 E13"/>
    </vehicle>
    <vehicle id="veh1074" depart="457.92">
        <route edges="-E13 -E11 E10"/>
    </vehicle>
    <vehicle id="veh722" depart="459.58">
        <route edges="-E2 E3 -E8 E6"/>
    </vehicle>
    <vehicle id="veh750" depart="460.83">
        <route edges="-E14 E12 E13"/>
    </vehicle>
    <vehicle id="veh46" depart="472.82">
        <route edges="-E2 E3 E12 E13"/>
    </vehicle>
    <vehicle id="veh577" depart="474.60">
        <route edges="-E10 E11 E13"/>
    </vehicle>
    <vehicle id="veh766" depart="479.95">
        <route edges="-E4 E0 E5 -E1 E4"/>
    </vehicle>
    <vehicle id="veh579" depart="480.24">
        <route edges="-E14 E12 E13"/>
    </vehicle>
    <vehicle id="veh295" depart="482.90">
        <route edges="-E14 E12 E13"/>
    </vehicle>
    <vehicle id="veh516" depart="486.02">
        <route edges="-E14 E12 E13"/>
    </vehicle>
    <vehicle id="veh1199" depart="486.36">
        <route edges="-E4 E0 E8 E14"/>
    </vehicle>
    <vehicle id="veh203" depart="487.39">
        <route edges="-E2 -E1 E0 E5 E2"/>
    </vehicle>
    <vehicle id="veh79" depart="488.58">
        <route edges="-E4 E0 E7 E11 E13"/>
    </vehicle>
    <vehicle id="veh448" depart="489.99">
        <route edges="-E4 E0 E7 E10"/>
    </vehicle>
    <vehicle id="veh255" depart="491.83">
        <route edges="-E10 -E7 E6"/>
    </vehicle>
    <vehicle id="veh113" depart="492.39">
        <route edges="-E4 E0 E7 E11 E13"/>
    </vehicle>
    <vehicle id="veh1012" depart="493.86">
        <route edges="-E13 -E12 -E8 E6"/>
    </vehicle>
    <vehicle id="veh873" depart="495.74">
        <route edges="-E14 E12 E13"/>
    </vehicle>
    <vehicle id="veh680" depart="495.85">
        <route edges="-E14 -E8 E6"/>
    </vehicle>
    <vehicle id="veh284" depart="499.63">
        <route edges="-E4 E0 E5 -E1 E4"/>
    </vehicle>
    <vehicle id="veh416" depart="499.72">
        <route edges="-E9 E11 -E12 -E8 E7 E9"/>
    </vehicle>
    <vehicle id="veh304" depart="501.03">
        <route edges="-E13 -E12 -E8 E6"/>
    </vehicle>
    <vehicle id="veh294" depart="505.96">
        <route edges="-E4 E0 E5 -E1 E4"/>
    </vehicle>
    <vehicle id="veh285" depart="509.33">
        <route edges="-E14 -E8 E6"/>
    </vehicle>
    <vehicle id="veh1141" depart="513.58">
        <route edges="-E10 E11 -E12 -E8 E7 E10"/>
    </vehicle>
    <vehicle id="veh980" depart="514.80">
        <route edges="-E13 -E12 -E8 E6"/>
    </vehicle>
    <vehicle id="veh946" depart="515.57">
        <route edges="-E14 -E8 E7 E10"/>
    </vehicle>
    <vehicle id="veh995" depart="519.64">
        <route edges="-E10 E11 E13"/>
    </vehicle>
    <vehicle id="veh231" depart="519.89">
        <route edges="-E9 E10"/>
    </vehicle>
    <vehicle id="veh993" depart="520.44">
        <route edges="-E4 E0 E7 E11 E13"/>
    </vehicle>
    <vehicle id="veh462" depart="523.46">
        <route edges="-E14 E12 E13"/>
    </vehicle>
    <vehicle id="veh968" depart="523.97">
        <route edges="-E13 -E12 -E8 E7 E11 E13"/>
    </vehicle>
    <vehicle id="veh1049" depart="526.02">
        <route edges="-E2 E3 E14"/>
    </vehicle>
    <vehicle id="veh729" depart="532.46">
        <route edges="-E14 -E8 E6"/>
    </vehicle>
    <vehicle id="veh1037" depart="547.42">
        <route edges="-E10 -E7 E6"/>
    </vehicle>
    <vehicle id="veh622" depart="547.43">
        <route edges="-E6 E8 E12 E13"/>
    </vehicle>
    <vehicle id="veh417" depart="547.72">
        <route edges="-E2 E3 E12 E13"/>
    </vehicle>
    <vehicle id="veh494" depart="549.35">
        <route edges="-E13 -E12 -E8 E7 E11 E13"/>
    </vehicle>
    <vehicle id="veh672" depart="551.29">
        <route edges="-E4 E0 E8 E14"/>
    </vehicle>
    <vehicle id="veh502" depart="554.49">
        <route edges="-E6 E5 -E1 E0 E6"/>
    </vehicle>
    <vehicle id="veh1114" depart="554.97">
        <route edges="-E14 -E8 E7 E10"/>
    </vehicle>
    <vehicle id="veh648" depart="556.04">
        <route edges="-E10 E11 -E12 -E8 E7 E10"/>
    </vehicle>
    <vehicle id="veh332" depart="560.77">
        <route edges="-E14 -E8 E6"/>
    </vehicle>
    <vehicle id="veh927" depart="564.62">
        <route edges="-E13 -E11 E9"/>
    </vehicle>
    <vehicle id="veh593" depart="571.06">
        <route edges="-E4 E0 E7 E9"/>
    </vehicle>
    <vehicle id="veh656" depart="575.32">
        <route edges="-E13 -E12 -E3 E2"/>
    </vehicle>
    <vehicle id="veh732" depart="575.70">
        <route edges="-E4 E0 E6"/>
    </vehicle>
    <vehicle id="veh538" depart="576.71">
        <route edges="-E2 E3 -E8 E6"/>
    </vehicle>
    <vehicle id="veh915" depart="582.18">
        <route edges="-E2 E3 E12 E13"/>
    </vehicle>
    <vehicle id="veh899" depart="584.64">
        <route edges="-E4 E0 E5 -E1 E4"/>
    </vehicle>
    <vehicle id="veh77" depart="585.04">
        <route edges="-E4 E0 E7 E9"/>
    </vehicle>
    <vehicle id="veh1086" depart="587.63">
        <route edges="-E2 E3 -E8 E6"/>
    </vehicle>
    <vehicle id="veh1109" depart="590.10">
        <route edges="-E13 -E12 -E8 E6"/>
    </vehicle>
    <vehicle id="veh1153" depart="594.02">
        <route edges="-E13 -E11 E9"/>
    </vehicle>
    <vehicle id="veh666" depart="599.08">
        <route edges="-E9 E11 -E12 -E8 E7 E9"/>
    </vehicle>
    <vehicle id="veh242" depart="599.75">
        <route edges="-E13 -E12 -E8 E7 E11 E13"/>
    </vehicle>
    <vehicle id="veh73" depart="616.00">
        <route edges="-E4 E0 E6"/>
    </vehicle>
    <vehicle id="veh1151" depart="624.61">
        <route edges="-E10 -E7 E8 E14"/>
    </vehicle>
    <vehicle id="veh525" depart="625.16">
        <route edges="-E10 E11 -E12 -E8 E7 E10"/>
    </vehicle>
    <vehicle id="veh220" depart="629.52">
        <route edges="-E4 E1 E2"/>
    </vehicle>
    <vehicle id="veh1006" depart="629.93">
        <route edges="-E6 E8 E12 E13"/>
    </vehicle>
    <vehicle id="veh931" depart="633.64">
        <route edges="-E2 -E1 E0 E5 E2"/>
    </vehicle>
    <vehicle id="veh727" depart="635.78">
        <route edges="-E2 E3 E12 -E11 E9"/>
    </vehicle>
    <vehicle id="veh1136" depart="639.63">
        <route edges="-E6 E5 -E1 E0 E6"/>
    </vehicle>
    <vehicle id="veh1011" depart="642.62">
        <route edges="-E4 E0 E7 E11 E13"/>
    </vehicle>
    <vehicle id="veh394" depart="644.00">
        <route edges="-E2 -E1 E0 E7 E10"/>
    </vehicle>
    <vehicle id="veh910" depart="645.29">
        <route edges="-E9 -E7 E6"/>
    </vehicle>
    <vehicle id="veh225" depart="645.54">
        <route edges="-E13 -E11 E10"/>
    </vehicle>
    <vehicle id="veh1152" depart="646.25">
        <route edges="-E14 -E8 E6"/>
    </vehicle>
    <vehicle id="veh849" depart="647.00">
        <route edges="-E13 -E12 -E8 E6"/>
    </vehicle>
    <vehicle id="veh1188" depart="647.56">
        <route edges="-E2 -E1 E0 E7 E10"/>
    </vehicle>
    <vehicle id="veh76" depart="647.68">
        <route edges="-E6 E5 -E1 E0 E6"/>
    </vehicle>
    <vehicle id="veh1028" depart="650.85">
        <route edges="-E2 E3 -E8 E6"/>
    </vehicle>
    <vehicle id="veh27" depart="653.22">
        <route edges="-E9 E11 E13"/>
    </vehicle>
    <vehicle id="veh165" depart="653.63">
        <route edges="-E13 -E12 -E3 -E1 E4"/>
    </vehicle>
    <vehicle id="veh276" depart="656.14">
        <route edges="-E4 E0 E7 E11 E13"/>
    </vehicle>
    <vehicle id="veh352" depart="659.76">
        <route edges="-E9 E11 E13"/>
    </vehicle>
    <vehicle id="veh343" depart="662.77">
        <route edges="-E4 E1 E2"/>
    </vehicle>
    <vehicle id="veh325" depart="668.70">
        <route edges="-E9 E10"/>
    </vehicle>
    <vehicle id="veh1154" depart="670.05">
        <route edges="-E6 E5 -E1 E0 E6"/>
    </vehicle>
    <vehicle id="veh950" depart="670.10">
        <route edges="-E13 -E11 E10"/>
    </vehicle>
    <vehicle id="veh22" depart="672.62">
        <route edges="-E10 E11 -E12 -E8 E7 E10"/>
    </vehicle>
    <vehicle id="veh190" depart="677.01">
        <route edges="-E6 E5 -E1 E0 E6"/>
    </vehicle>
    <vehicle id="veh251" depart="683.81">
        <route edges="-E14 -E8 E5 E3 E14"/>
    </vehicle>
    <vehicle id="veh1003" depart="684.48">
        <route edges="-E2 E3 E12 E13"/>
    </vehicle>
    <vehicle id="veh872" depart="688.50">
        <route edges="-E9 E11 -E12 E14"/>
    </vehicle>
    <vehicle id="veh609" depart="688.81">
        <route edges="-E13 -E12 -E8 E6"/>
    </vehicle>
    <vehicle id="veh223" depart="693.90">
        <route edges="-E13 -E12 -E8 E7 E11 E13"/>
    </vehicle>
    <vehicle id="veh169" depart="694.46">
        <route edges="-E2 E3 -E8 E6"/>
    </vehicle>
    <vehicle id="veh150" depart="697.43">
        <route edges="-E4 E0 E7 E11 E13"/>
    </vehicle>
    <vehicle id="veh831" depart="701.31">
        <route edges="-E9 E11 -E12 -E8 E7 E9"/>
    </vehicle>
    <vehicle id="veh548" depart="702.97">
        <route edges="-E4 E0 E6"/>
    </vehicle>
    <vehicle id="veh700" depart="704.28">
        <route edges="-E14 E12 E13"/>
    </vehicle>
    <vehicle id="veh424" depart="704.38">
        <route edges="-E10 E11 E13"/>
    </vehicle>
    <vehicle id="veh302" depart="705.16">
        <route edges="-E13 -E12 -E8 E7 E11 E13"/>
    </vehicle>
    <vehicle id="veh298" depart="707.61">
        <route edges="-E10 E11 E13"/>
    </vehicle>
    <vehicle id="veh157" depart="711.05">
        <route edges="-E13 -E11 E10"/>
    </vehicle>
    <vehicle id="veh529" depart="713.69">
        <route edges="-E2 E3 E12 E13"/>
    </vehicle>
    <vehicle id="veh945" depart="715.92">
        <route edges="-E4 E0 E7 E10"/>
    </vehicle>
    <vehicle id="veh316" depart="716.85">
        <route edges="-E6 E7 E10"/>
    </vehicle>
    <vehicle id="veh158" depart="717.63">
        <route edges="-E10 E11 E13"/>
    </vehicle>
    <vehicle id="veh816" depart="720.45">
        <route edges="-E2 -E1 E0 E5 E2"/>
    </vehicle>
    <vehicle id="veh994" depart="726.93">
        <route edges="-E2 -E1 E0 E7 E10"/>
    </vehicle>
    <vehicle id="veh57" depart="731.20">
        <route edges="-E2 E3 E12 E13"/>
    </vehicle>
    <vehicle id="veh883" depart="734.00">
        <route edges="-E4 E0 E6"/>
    </vehicle>
    <vehicle id="veh438" depart="734.07">
        <route edges="-E14 E12 E13"/>
    </vehicle>
    <vehicle id="veh138" depart="735.34">
        <route edges="-E4 E1 E2"/>
    </vehicle>
    <vehicle id="veh559" depart="735.96">
        <route edges="-E4 E0 E6"/>
    </vehicle>
    <vehicle id="veh1084" depart="738.35">
        <route edges="-E6 E7 E10"/>
    </vehicle>
    <vehicle id="veh650" depart="747.52">
        <route edges="-E14 -E8 E7 E10"/>
    </vehicle>
    <vehicle id="veh1031" depart="748.29">
        <route edges="-E9 E11 E13"/>
    </vehicle>
    <vehicle id="veh759" depart="748.97">
        <route edges="-E13 -E12 -E8 E7 E11 E13"/>
    </vehicle>
    <vehicle id="veh356" depart="755.90">
        <route edges="-E2 -E1 E0 E7 E10"/>
    </vehicle>
    <vehicle id="veh25" depart="755.91">
        <route edges="-E14 -E8 E7 E10"/>
    </vehicle>
    <vehicle id="veh415" depart="759.69">
        <route edges="-E10 E11 E13"/>
    </vehicle>
    <vehicle id="veh681" depart="760.59">
        <route edges="-E14 -E8 E7 E10"/>
    </vehicle>
    <vehicle id="veh847" depart="761.43">
        <route edges="-E13 -E12 -E8 E6"/>
    </vehicle>
    <vehicle id="veh744" depart="767.17">
        <route edges="-E6 E7 E10"/>
    </vehicle>
    <vehicle id="veh891" depart="769.51">
        <route edges="-E4 E0 E7 E11 E13"/>
    </vehicle>
    <vehicle id="veh684" depart="773.20">
        <route edges="-E14 -E8 E6"/>
    </vehicle>
    <vehicle id="veh319" depart="777.36">
        <route edges="-E13 -E11 E10"/>
    </vehicle>
    <vehicle id="veh917" depart="777.86">
        <route edges="-E2 E3 -E8 E6"/>
    </vehicle>