<?xml version="1.0" encoding="UTF-8"?>

<!-- generated on 2026-06-15T16:41:05.984796+01:00 by Eclipse SUMO duarouter 1.27.0
<duarouterConfiguration xmlns:xsi="http://www.w3.org/2001/XMLSchema-instance" xsi:noNamespaceSchemaLocation="http://sumo.dlr.de/xsd/duarouterConfiguration.xsd">

    <input>
        <net-file value="C:\Users\RODO\Desktop\Sys auto - Projekt\src\City_map_2\city2.net.xml"/>
        <route-files value="C:\Users\RODO\AppData\Local\Temp\city2_train_4.trips.xml"/>
    </input>

    <output>
        <output-file value="C:\Users\RODO\Desktop\Sys auto - Projekt\src\City_map_2\city2_train_4.rou.xml"/>
    </output>

    <report>
        <no-warnings value="true"/>
        <ignore-errors value="true"/>
    </report>

    <random_number>
        <seed value="1004"/>
    </random_number>

</duarouterConfiguration>
-->

<routes xmlns:xsi="http://www.w3.org/2001/XMLSchema-instance" xsi:noNamespaceSchemaLocation="http://sumo.dlr.de/xsd/routes_file.xsd">
    <vehicle id="veh586" depart="1.22">
        <route edges="-E9 -E7 E6"/>
    </vehicle>
    <vehicle id="veh1077" depart="7.09">
        <route edges="-E9 E11 -E12 -E8 E7 E9"/>
    </vehicle>
    <vehicle id="veh539" depart="7.90">
        <route edges="-E10 E9"/>
    </vehicle>
    <vehicle id="veh1188" depart="11.24">
        <route edges="-E14 -E8 -E0 E4"/>
    </vehicle>
    <vehicle id="veh1183" depart="13.18">
        <route edges="-E10 E11 -E12 -E8 E7 E10"/>
    </vehicle>
    <vehicle id="veh1016" depart="13.59">
        <route edges="-E13 -E12 -E8 E7 E11 E13"/>
    </vehicle>
    <vehicle id="veh1146" depart="14.23">
        <route edges="-E9 E10"/>
    </vehicle>
    <vehicle id="veh652" depart="23.33">
        <route edges="-E4 E0 E7 E11 E13"/>
    </vehicle>
    <vehicle id="veh806" depart="24.20">
        <route edges="-E4 E0 E7 E10"/>
    </vehicle>
    <vehicle id="veh602" depart="25.45">
        <route edges="-E4 E0 E6"/>
    </vehicle>
    <vehicle id="veh661" depart="25.70">
        <route edges="-E10 E11 E13"/>
    </vehicle>
    <vehicle id="veh335" depart="32.49">
        <route edges="-E13 -E12 -E3 -E1 E4"/>
    </vehicle>
    <vehicle id="veh37" depart="32.78">
        <route edges="-E4 E0 E6"/>
    </vehicle>
    <vehicle id="veh48" depart="43.36">
        <route edges="-E10 -E7 E8 E14"/>
    </vehicle>
    <vehicle id="veh96" depart="45.39">
        <route edges="-E4 E0 E7 E10"/>
    </vehicle>
    <vehicle id="veh39" depart="49.96">
        <route edges="-E13 -E12 -E8 E6"/>
    </vehicle>
    <vehicle id="veh1014" depart="55.90">
        <route edges="-E6 E8 E12 E13"/>
    </vehicle>
    <vehicle id="veh329" depart="57.75">
        <route edges="-E14 E12 E13"/>
    </vehicle>
    <vehicle id="veh705" depart="60.89">
        <route edges="-E6 E5 -E1 E0 E6"/>
    </vehicle>
    <vehicle id="veh194" depart="63.85">
        <route edges="-E13 -E12 -E8 E6"/>
    </vehicle>
    <vehicle id="veh414" depart="65.87">
        <route edges="-E9 -E7 E6"/>
    </vehicle>
    <vehicle id="veh767" depart="65.89">
        <route edges="-E4 E0 E8 E14"/>
    </vehicle>
    <vehicle id="veh786" depart="67.23">
        <route edges="-E9 E11 E13"/>
    </vehicle>
    <vehicle id="veh496" depart="68.16">
        <route edges="-E4 E0 E7 E11 E13"/>
    </vehicle>
    <vehicle id="veh112" depart="77.14">
        <route edges="-E10 E11 -E12 -E8 E7 E10"/>
    </vehicle>
    <vehicle id="veh315" depart="77.23">
        <route edges="-E10 -E7 E6"/>
    </vehicle>
    <vehicle id="veh665" depart="79.00">
        <route edges="-E6 E5 -E1 E0 E6"/>
    </vehicle>
    <vehicle id="veh1088" depart="81.20">
        <route edges="-E13 -E12 -E8 E6"/>
    </vehicle>
    <vehicle id="veh489" depart="84.00">
        <route edges="-E4 E0 E7 E11 E13"/>
    </vehicle>
    <vehicle id="veh253" depart="90.49">
        <route edges="-E14 E12 E13"/>
    </vehicle>
    <vehicle id="veh431" depart="91.07">
        <route edges="-E4 E0 E7 E11 E13"/>
    </vehicle>
    <vehicle id="veh271" depart="92.85">
        <route edges="-E9 E10"/>
    </vehicle>
    <vehicle id="veh15" depart="93.09">
        <route edges="-E9 E11 E13"/>
    </vehicle>
    <vehicle id="veh344" depart="95.50">
        <route edges="-E9 E11 E13"/>
    </vehicle>
    <vehicle id="veh616" depart="96.15">
        <route edges="-E6 E5 -E1 E0 E6"/>
    </vehicle>
    <vehicle id="veh632" depart="96.35">
        <route edges="-E6 E5 -E1 E0 E6"/>
    </vehicle>
    <vehicle id="veh380" depart="103.46">
        <route edges="-E9 E10"/>
    </vehicle>
    <vehicle id="veh932" depart="104.43">
        <route edges="-E13 -E12 -E8 E6"/>
    </vehicle>
    <vehicle id="veh299" depart="105.63">
        <route edges="-E13 -E12 -E8 E7 E11 E13"/>
    </vehicle>
    <vehicle id="veh413" depart="105.69">
        <route edges="-E2 E3 E12 E13"/>
    </vehicle>
    <vehicle id="veh587" depart="106.79">
        <route edges="-E6 -E0 E4"/>
    </vehicle>
    <vehicle id="veh630" depart="107.87">
        <route edges="-E9 -E7 E6"/>
    </vehicle>
    <vehicle id="veh1127" depart="109.05">
        <route edges="-E6 E7 E10"/>
    </vehicle>
    <vehicle id="veh182" depart="115.62">
        <route edges="-E14 E12 -E11 E9"/>
    </vehicle>
    <vehicle id="veh1003" depart="119.27">
        <route edges="-E14 E12 E13"/>
    </vehicle>
    <vehicle id="veh1187" depart="125.40">
        <route edges="-E10 E11 E13"/>
    </vehicle>
    <vehicle id="veh306" depart="125.76">
        <route edges="-E10 -E7 E6"/>
    </vehicle>
    <vehicle id="veh1109" depart="127.49">
        <route edges="-E9 -E7 E6"/>
    </vehicle>
    <vehicle id="veh203" depart="133.85">
        <route edges="-E9 -E7 E6"/>
    </vehicle>
    <vehicle id="veh730" depart="137.72">
        <route edges="-E13 -E11 E9"/>
    </vehicle>
    <vehicle id="veh903" depart="138.97">
        <route edges="-E6 E7 E10"/>
    </vehicle>
    <vehicle id="veh696" depart="141.72">
        <route edges="-E6 E8 E12 E13"/>
    </vehicle>
    <vehicle id="veh133" depart="144.51">
        <route edges="-E6 E7 E10"/>
    </vehicle>
    <vehicle id="veh398" depart="151.98">
        <route edges="-E13 -E12 -E8 E6"/>
    </vehicle>
    <vehicle id="veh60" depart="153.82">
        <route edges="-E9 E11 -E12 -E8 E7 E9"/>
    </vehicle>
    <vehicle id="veh624" depart="155.48">
        <route edges="-E14 -E8 E7 E10"/>
    </vehicle>
    <vehicle id="veh571" depart="158.11">
        <route edges="-E13 -E12 -E8 E7 E11 E13"/>
    </vehicle>
    <vehicle id="veh655" depart="159.53">
        <route edges="-E14 E12 -E11 E9"/>
    </vehicle>
    <vehicle id="veh237" depart="163.01">
        <route edges="-E9 -E7 E6"/>
    </vehicle>
    <vehicle id="veh85" depart="164.11">
        <route edges="-E9 E10"/>
    </vehicle>
    <vehicle id="veh1011" depart="165.04">
        <route edges="-E10 -E7 E6"/>
    </vehicle>
    <vehicle id="veh313" depart="165.99">
        <route edges="-E2 E3 -E8 E6"/>
    </vehicle>
    <vehicle id="veh54" depart="172.70">
        <route edges="-E14 -E8 E7 E10"/>
    </vehicle>
    <vehicle id="veh10" depart="175.53">
        <route edges="-E2 -E1 E0 E7 E10"/>
    </vehicle>
    <vehicle id="veh697" depart="178.50">
        <route edges="-E2 E3 E12 -E11 E9"/>
    </vehicle>
    <vehicle id="veh707" depart="179.99">
        <route edges="-E2 E3 E12 E13"/>
    </vehicle>
    <vehicle id="veh95" depart="180.00">
        <route edges="-E4 E0 E7 E11 E13"/>
    </vehicle>
    <vehicle id="veh191" depart="181.39">
        <route edges="-E13 -E11 E10"/>
    </vehicle>
    <vehicle id="veh1007" depart="183.59">
        <route edges="-E6 E7 E10"/>
    </vehicle>
    <vehicle id="veh126" depart="185.06">
        <route edges="-E4 E0 E7 E9"/>
    </vehicle>
    <vehicle id="veh485" depart="185.14">
        <route edges="-E2 E3 -E8 E6"/>
    </vehicle>
    <vehicle id="veh919" depart="185.66">
        <route edges="-E9 -E7 E6"/>
    </vehicle>
    <vehicle id="veh752" depart="186.08">
        <route edges="-E2 E3 E12 -E11 E9"/>
    </vehicle>
    <vehicle id="veh781" depart="187.31">
        <route edges="-E9 -E7 E6"/>
    </vehicle>
    <vehicle id="veh1066" depart="189.19">
        <route edges="-E14 E12 E13"/>
    </vehicle>
    <vehicle id="veh361" depart="190.86">
        <route edges="-E9 -E7 E5 E2"/>
    </vehicle>
    <vehicle id="veh1091" depart="195.27">
        <route edges="-E14 -E8 E7 E10"/>
    </vehicle>
    <vehicle id="veh228" depart="199.65">
        <route edges="-E14 -E8 E6"/>
    </vehicle>
    <vehicle id="veh721" depart="202.25">
        <route edges="-E13 -E11 E10"/>
    </vehicle>
    <vehicle id="veh1075" depart="205.55">
        <route edges="-E10 E11 E13"/>
    </vehicle>
    <vehicle id="veh4" depart="206.10">
        <route edges="-E13 -E12 E14"/>
    </vehicle>
    <vehicle id="veh86" depart="211.43">
        <route edges="-E13 -E12 -E3 -E1 E4"/>
    </vehicle>
    <vehicle id="veh246" depart="213.19">
        <route edges="-E2 E3 -E8 E6"/>
    </vehicle>
    <vehicle id="veh1071" depart="216.76">
        <route edges="-E10 -E7 E8 E14"/>
    </vehicle>
    <vehicle id="veh1079" depart="217.65">
        <route edges="-E14 -E8 E5 E3 E14"/>
    </vehicle>
    <vehicle id="veh1025" depart="220.98">
        <route edges="-E4 E1 E2"/>
    </vehicle>
    <vehicle id="veh526" depart="221.55">
        <route edges="-E14 E12 E13"/>
    </vehicle>
    <vehicle id="veh1148" depart="232.93">
        <route edges="-E2 E3 E12 E13"/>
    </vehicle>
    <vehicle id="veh84" depart="236.54">
        <route edges="-E10 E11 -E12 -E8 E7 E10"/>
    </vehicle>
    <vehicle id="veh604" depart="237.56">
        <route edges="-E10 E11 E13"/>
    </vehicle>
    <vehicle id="veh1072" depart="240.94">
        <route edges="-E13 -E11 E10"/>
    </vehicle>
    <vehicle id="veh508" depart="241.66">
        <route edges="-E2 E3 E12 -E11 E9"/>
    </vehicle>
    <vehicle id="veh780" depart="243.92">
        <route edges="-E4 E0 E6"/>
    </vehicle>
    <vehicle id="veh471" depart="247.73">
        <route edges="-E6 E8 E12 E13"/>
    </vehicle>
    <vehicle id="veh741" depart="251.62">
        <route edges="-E13 -E12 -E8 E6"/>
    </vehicle>
    <vehicle id="veh1039" depart="253.57">
        <route edges="-E10 -E7 E6"/>
    </vehicle>
    <vehicle id="veh900" depart="253.95">
        <route edges="-E4 E0 E7 E11 E13"/>
    </vehicle>
    <vehicle id="veh1195" depart="254.42">
        <route edges="-E6 E5 -E1 E0 E6"/>
    </vehicle>
    <vehicle id="veh295" depart="257.85">
        <route edges="-E14 -E8 E6"/>
    </vehicle>
    <vehicle id="veh769" depart="259.10">
        <route edges="-E2 -E1 E0 E7 E10"/>
    </vehicle>
    <vehicle id="veh554" depart="259.84">
        <route edges="-E10 E11 E13"/>
    </vehicle>
    <vehicle id="veh215" depart="260.80">
        <route edges="-E9 -E7 -E0 E4"/>
    </vehicle>
    <vehicle id="veh757" depart="262.20">
        <route edges="-E10 E11 E13"/>
    </vehicle>
    <vehicle id="veh865" depart="264.90">
        <route edges="-E13 -E12 -E8 E7 E11 E13"/>
    </vehicle>
    <vehicle id="veh149" depart="273.64">
        <route edges="-E13 -E11 E10"/>
    </vehicle>
    <vehicle id="veh324" depart="277.06">
        <route edges="-E4 E0 E7 E11 E13"/>
    </vehicle>
    <vehicle id="veh662" depart="277.45">
        <route edges="-E10 -E7 E8 E14"/>
    </vehicle>
    <vehicle id="veh232" depart="277.75">
        <route edges="-E2 E3 E12 E13"/>
    </vehicle>
    <vehicle id="veh439" depart="284.25">
        <route edges="-E14 -E8 E7 E10"/>
    </vehicle>
    <vehicle id="veh1087" depart="285.38">
        <route edges="-E6 E5 -E1 E0 E6"/>
    </vehicle>
    <vehicle id="veh935" depart="293.83">
        <route edges="-E6 -E0 E4"/>
    </vehicle>
    <vehicle id="veh534" depart="294.62">
        <route edges="-E13 -E12 -E8 E6"/>
    </vehicle>
    <vehicle id="veh369" depart="294.71">
        <route edges="-E14 -E8 E6"/>
    </vehicle>
    <vehicle id="veh702" depart="296.35">
        <route edges="-E10 E11 -E12 -E8 E7 E10"/>
    </vehicle>
    <vehicle id="veh25" depart="298.75">
        <route edges="-E2 E3 -E8 E6"/>
    </vehicle>
    <vehicle id="veh800" depart="299.55">
        <route edges="-E2 -E1 E0 E7 E10"/>
    </vehicle>
    <vehicle id="veh711" depart="300.04">
        <route edges="-E13 -E12 -E3 -E1 E4"/>
    </vehicle>
    <vehicle id="veh519" depart="306.09">
        <route edges="-E2 E3 E12 E13"/>
    </vehicle>
    <vehicle id="veh21" depart="306.66">
        <route edges="-E9 -E7 E6"/>
    </vehicle>
    <vehicle id="veh1114" depart="309.90">
        <route edges="-E10 -E7 E6"/>
    </vehicle>
    <vehicle id="veh500" depart="310.60">
        <route edges="-E2 E3 -E8 E6"/>
    </vehicle>
    <vehicle id="veh784" depart="310.79">
        <route edges="-E2 E3 E14"/>
    </vehicle>
    <vehicle id="veh642" depart="313.79">
        <route edges="-E4 E0 E6"/>
    </vehicle>
    <vehicle id="veh653" depart="313.87">
        <route edges="-E10 -E7 E6"/>
    </vehicle>
    <vehicle id="veh395" depart="318.54">
        <route edges="-E13 -E11 E10"/>
    </vehicle>
    <vehicle id="veh452" depart="319.39">
        <route edges="-E10 E11 -E12 -E8 E7 E10"/>
    </vehicle>
    <vehicle id="veh371" depart="322.36">
        <route edges="-E6 E8 E12 E13"/>
    </vehicle>
    <vehicle id="veh878" depart="324.69">
        <route edges="-E9 E10"/>
    </vehicle>
    <vehicle id="veh723" depart="328.91">
        <route edges="-E6 E5 -E1 E0 E6"/>
    </vehicle>
    <vehicle id="veh533" depart="330.35">
        <route edges="-E6 E8 E12 E13"/>
    </vehicle>
    <vehicle id="veh1181" depart="333.15">
        <route edges="-E13 -E12 -E8 E7 E11 E13"/>
    </vehicle>
    <vehicle id="veh742" depart="337.21">
        <route edges="-E2 E3 -E8 E6"/>
    </vehicle>
    <vehicle id="veh1089" depart="337.63">
        <route edges="-E10 -E7 E6"/>
    </vehicle>
    <vehicle id="veh815" depart="340.90">
        <route edges="-E2 E3 -E8 E6"/>
    </vehicle>
    <vehicle id="veh261" depart="341.20">
        <route edges="-E13 -E11 E10"/>
    </vehicle>
    <vehicle id="veh467" depart="342.15">
        <route edges="-E2 E3 E12 E13"/>
    </vehicle>
    <vehicle id="veh708" depart="344.29">
        <route edges="-E13 -E12 -E8 E7 E11 E13"/>
    </vehicle>
    <vehicle id="veh474" depart="346.42">
        <route edges="-E2 -E1 E0 E7 E10"/>
    </vehicle>
    <vehicle id="veh592" depart="347.39">
        <route edges="-E14 E12 E13"/>
    </vehicle>
    <vehicle id="veh913" depart="347.90">
        <route edges="-E10 E11 E13"/>
    </vehicle>
    <vehicle id="veh124" depart="348.94">
        <route edges="-E6 E8 E12 E13"/>
    </vehicle>
    <vehicle id="veh449" depart="351.02">
        <route edges="-E2 E3 E14"/>
    </vehicle>
    <vehicle id="veh879" depart="353.96">
        <route edges="-E14 -E8 E7 E10"/>
    </vehicle>
    <vehicle id="veh236" depart="356.69">
        <route edges="-E10 E11 -E12 -E8 E7 E10"/>
    </vehicle>
    <vehicle id="veh795" depart="357.59">
        <route edges="-E6 E7 E9"/>
    </vehicle>
    <vehicle id="veh743" depart="357.80">
        <route edges="-E4 E0 E7 E9"/>
    </vehicle>
    <vehicle id="veh7" depart="362.84">
        <route edges="-E14 -E8 E7 E10"/>
    </vehicle>
    <vehicle id="veh576" depart="364.05">
        <route edges="-E9 E11 -E12 E14"/>
    </vehicle>
    <vehicle id="veh671" depart="365.84">
        <route edges="-E4 E0 E6"/>
    </vehicle>
    <vehicle id="veh679" depart="368.92">
        <route edges="-E13 -E12 -E8 E7 E11 E13"/>
    </vehicle>
    <vehicle id="veh594" depart="370.52">
        <route edges="-E10 -E7 E6"/>
    </vehicle>
    <vehicle id="veh1190" depart="375.00">
        <route edges="-E9 -E7 E6"/>
    </vehicle>
    <vehicle id="veh672" depart="375.87">
        <route edges="-E4 E0 E8 E14"/>
    </vehicle>
    <vehicle id="veh61" depart="378.36">
        <route edges="-E14 -E8 E6"/>
    </vehicle>
    <vehicle id="veh247" depart="378.46">
        <route edges="-E14 -E8 E7 E10"/>
    </vehicle>
    <vehicle id="veh310" depart="382.31">
        <route edges="-E6 E5 E2"/>
    </vehicle>
    <vehicle id="veh863" depart="388.60">
        <route edges="-E4 E0 E7 E10"/>
    </vehicle>
    <vehicle id="veh700" depart="389.16">
        <route edges="-E13 -E11 E10"/>
    </vehicle>
    <vehicle id="veh114" depart="389.63">
        <route edges="-E10 -E7 -E0 E4"/>
    </vehicle>
    <vehicle id="veh678" depart="391.19">
        <route edges="-E4 E0 E7 E11 E13"/>
    </vehicle>
    <vehicle id="veh382" depart="391.62">
        <route edges="-E13 -E12 -E8 E7 E11 E13"/>
    </vehicle>
    <vehicle id="veh425" depart="392.35">
        <route edges="-E10 E11 -E12 -E8 E7 E10"/>
    </vehicle>
    <vehicle id="veh654" depart="392.37">
        <route edges="-E6 E8 E12 E13"/>
    </vehicle>
    <vehicle id="veh488" depart="392.39">
        <route edges="-E14 E12 E13"/>
    </vehicle>
    <vehicle id="veh70" depart="392.49">
        <route edges="-E4 E0 E7 E11 E13"/>
    </vehicle>
    <vehicle id="veh974" depart="393.40">
        <route edges="-E6 -E0 E4"/>
    </vehicle>
    <vehicle id="veh845" depart="394.80">
        <route edges="-E4 E0 E7 E11 E13"/>
    </vehicle>
    <vehicle id="veh185" depart="396.54">
        <route edges="-E6 E7 E10"/>
    </vehicle>
    <vehicle id="veh285" depart="398.76">
        <route edges="-E9 E11 -E12 E14"/>
    </vehicle>
    <vehicle id="veh142" depart="399.10">
        <route edges="-E14 -E8 -E0 E4"/>
    </vehicle>
    <vehicle id="veh340" depart="399.62">
        <route edges="-E14 -E8 E7 E10"/>
    </vehicle>
    <vehicle id="veh842" depart="401.24">
        <route edges="-E13 -E11 E9"/>
    </vehicle>
    <vehicle id="veh458" depart="405.66">
        <route edges="-E9 -E7 E5 E2"/>
    </vehicle>
    <vehicle id="veh854" depart="406.49">
        <route edges="-E10 -E7 E6"/>
    </vehicle>
    <vehicle id="veh857" depart="408.02">
        <route edges="-E2 E3 E12 E13"/>
    </vehicle>
    <vehicle id="veh635" depart="408.07">
        <route edges="-E14 -E8 E7 E10"/>
    </vehicle>
    <vehicle id="veh1095" depart="409.88">
        <route edges="-E2 E3 -E8 E6"/>
    </vehicle>
    <vehicle id="veh127" depart="410.74">
        <route edges="-E6 E7 E10"/>
    </vehicle>
    <vehicle id="veh51" depart="411.40">
        <route edges="-E2 E3 E12 E13"/>
    </vehicle>
    <vehicle id="veh275" depart="412.27">
        <route edges="-E2 -E1 E0 E7 E10"/>
    </vehicle>
    <vehicle id="veh680" depart="414.83">
        <route edges="-E10 -E7 E6"/>
    </vehicle>
    <vehicle id="veh399" depart="415.17">
        <route edges="-E6 E5 E2"/>
    </vehicle>
    <vehicle id="veh348" depart="417.79">
        <route edges="-E9 E10"/>
    </vehicle>
    <vehicle id="veh1036" depart="422.96">
        <route edges="-E9 -E7 E6"/>
    </vehicle>
    <vehicle id="veh428" depart="426.18">
        <route edges="-E14 E12 E13"/>
    </vehicle>
    <vehicle id="veh985" depart="427.09">
        <route edges="-E13 -E11 E10"/>
    </vehicle>
    <vehicle id="veh265" depart="427.19">
        <route edges="-E13 -E11 E10"/>
    </vehicle>
    <vehicle id="veh843" depart="433.20">
        <route edges="-E10 -E7 E6"/>
    </vehicle>
    <vehicle id="veh1100" depart="435.98">
        <route edges="-E9 E11 E13"/>
    </vehicle>
    <vehicle id="veh206" depart="436.91">
        <route edges="-E13 -E12 E14"/>
    </vehicle>
    <vehicle id="veh131" depart="442.80">
        <route edges="-E4 E0 E7 E10"/>
    </vehicle>
    <vehicle id="veh254" depart="446.75">
        <route edges="-E6 E8 E12 E13"/>
    </vehicle>
    <vehicle id="veh1055" depart="448.85">
        <route edges="-E10 E11 E13"/>
    </vehicle>
    <vehicle id="veh924" depart="448.86">
        <route edges="-E10 E11 -E12 -E8 E7 E10"/>
    </vehicle>
    <vehicle id="veh837" depart="450.72">
        <route edges="-E6 E5 -E1 E0 E6"/>
    </vehicle>
    <vehicle id="veh178" depart="452.10">
        <route edges="-E4 E0 E6"/>
    </vehicle>
    <vehicle id="veh557" depart="452.47">
        <route edges="-E10 -E7 E6"/>
    </vehicle>
    <vehicle id="veh445" depart="453.81">
        <route edges="-E14 E12 -E11 E9"/>
    </vehicle>
    <vehicle id="veh535" depart="457.94">
        <route edges="-E6 E8 E12 E13"/>
    </vehicle>
    <vehicle id="veh921" depart="458.81">
        <route edges="-E9 E11 -E12 -E8 E7 E9"/>
    </vehicle>
    <vehicle id="veh442" depart="459.82">
        <route edges="-E9 E11 -E12 E14"/>
    </vehicle>
    <vehicle id="veh14" depart="461.16">
        <route edges="-E6 E7 E10"/>
    </vehicle>
    <vehicle id="veh281" depart="463.06">
        <route edges="-E14 E12 E13"/>
    </vehicle>
    <vehicle id="veh440" depart="467.42">
        <route edges="-E9 E11 -E12 E14"/>
    </vehicle>
    <vehicle id="veh620" depart="467.56">
        <route edges="-E9 -E7 E6"/>
    </vehicle>
    <vehicle id="veh962" depart="470.42">
        <route edges="-E14 -E8 E6"/>
    </vehicle>
    <vehicle id="veh447" depart="472.13">
        <route edges="-E2 E3 E12 E13"/>
    </vehicle>
    <vehicle id="veh606" depart="473.23">
        <route edges="-E4 E0 E6"/>
    </vehicle>
    <vehicle id="veh330" depart="473.42">
        <route edges="-E6 E8 E12 E13"/>
    </vehicle>
    <vehicle id="veh1175" depart="476.78">
        <route edges="-E14 -E3 E2"/>
    </vehicle>
    <vehicle id="veh423" depart="477.40">
        <route edges="-E10 E11 E13"/>
    </vehicle>
    <vehicle id="veh996" depart="478.94">
        <route edges="-E2 E3 E12 E13"/>
    </vehicle>
    <vehicle id="veh286" depart="480.76">
        <route edges="-E14 -E8 E7 E10"/>
    </vehicle>
    <vehicle id="veh230" depart="484.88">
        <route edges="-E6 E7 E9"/>
    </vehicle>
    <vehicle id="veh416" depart="488.01">
        <route edges="-E10 E11 E13"/>
    </vehicle>
    <vehicle id="veh1060" depart="490.88">
        <route edges="-E13 -E12 -E8 E7 E11 E13"/>
    </vehicle>
    <vehicle id="veh663" depart="495.22">
        <route edges="-E10 E11 E13"/>
    </vehicle>
    <vehicle id="veh1062" depart="496.60">
        <route edges="-E14 E12 -E11 E9"/>
    </vehicle>
    <vehicle id="veh544" depart="498.31">
        <route edges="-E13 -E12 -E8 E6"/>
    </vehicle>
    <vehicle id="veh852" depart="501.84">
        <route edges="-E10 E11 -E12 -E8 E7 E10"/>
    </vehicle>
    <vehicle id="veh1029" depart="503.10">
        <route edges="-E9 E10"/>
    </vehicle>
    <vehicle id="veh513" depart="504.74">
        <route edges="-E6 E5 -E1 E0 E6"/>
    </vehicle>
    <vehicle id="veh777" depart="505.55">
        <route edges="-E6 E7 E10"/>
    </vehicle>
    <vehicle id="veh613" depart="505.67">
        <route edges="-E6 E7 E10"/>
    </vehicle>
    <vehicle id="veh670" depart="506.56">
        <route edges="-E6 E7 E10"/>
    </vehicle>
    <vehicle id="veh132" depart="509.23">
        <route edges="-E13 -E12 -E8 E7 E11 E13"/>
    </vehicle>
    <vehicle id="veh799" depart="510.48">
        <route edges="-E14 -E8 E7 E10"/>
    </vehicle>
    <vehicle id="veh715" depart="521.18">
        <route edges="-E4 E0 E7 E11 E13"/>
    </vehicle>
    <vehicle id="veh1103" depart="523.28">
        <route edges="-E14 -E8 -E0 E4"/>
    </vehicle>
    <vehicle id="veh738" depart="523.91">
        <route edges="-E10 E11 -E12 -E8 E7 E10"/>
    </vehicle>
    <vehicle id="veh674" depart="524.13">
        <route edges="-E10 E11 -E12 -E8 E7 E10"/>
    </vehicle>
    <vehicle id="veh134" depart="525.43">
        <route edges="-E6 E5 -E1 E0 E6"/>
    </vehicle>
    <vehicle id="veh201" depart="527.30">
        <route edges="-E9 E11 -E12 -E8 E7 E9"/>
    </vehicle>
    <vehicle id="veh319" depart="529.34">
        <route edges="-E14 E12 E13"/>
    </vehicle>
    <vehicle id="veh503" depart="533.20">
        <route edges="-E4 E0 E7 E10"/>
    </vehicle>
    <vehicle id="veh211" depart="534.48">
        <route edges="-E13 -E11 E10"/>
    </vehicle>
    <vehicle id="veh1026" depart="541.18">
        <route edges="-E2 E3 -E8 E6"/>
    </vehicle>
    <vehicle id="veh656" depart="544.00">
        <route edges="-E9 -E7 E6"/>
    </vehicle>
    <vehicle id="veh357" depart="546.45">
        <route edges="-E10 E11 -E12 -E8 E7 E10"/>
    </vehicle>
    <vehicle id="veh53" depart="546.64">
        <route edges="-E6 E7 E10"/>
    </vehicle>
    <vehicle id="veh1094" depart="547.39">
        <route edges="-E13 -E12 -E8 E7 E11 E13"/>
    </vehicle>
    <vehicle id="veh746" depart="549.15">
        <route edges="-E4 E0 E5 -E1 E4"/>
    </vehicle>
    <vehicle id="veh443" depart="550.12">
        <route edges="-E9 E10"/>
    </vehicle>
    <vehicle id="veh1000" depart="552.24">
        <route edges="-E10 -E7 E5 E2"/>
    </vehicle>
    <vehicle id="veh1176" depart="553.05">
        <route edges="-E4 E0 E7 E11 E13"/>
    </vehicle>
    <vehicle id="veh444" depart="553.74">
        <route edges="-E9 E11 -E12 -E8 E7 E9"/>
    </vehicle>
    <vehicle id="veh614" depart="554.82">
        <route edges="-E9 E10"/>
    </vehicle>
    <vehicle id="veh756" depart="556.46">
        <route edges="-E13 -E12 -E8 E7 E11 E13"/>
    </vehicle>
    <vehicle id="veh1" depart="563.43">
        <route edges="-E6 E5 -E1 E0 E6"/>
    </vehicle>
    <vehicle id="veh260" depart="566.05">
        <route edges="-E4 E0 E6"/>
    </vehicle>
    <vehicle id="veh862" depart="566.64">
        <route edges="-E14 -E8 E5 E3 E14"/>
    </vehicle>
    <vehicle id="veh1137" depart="567.66">
        <route edges="-E6 E8 E12 E13"/>
    </vehicle>
    <vehicle id="veh268" depart="569.51">
        <route edges="-E13 -E12 -E3 E2"/>
    </vehicle>
    <vehicle id="veh183" depart="571.24">
        <route edges="-E4 E0 E7 E11 E13"/>
    </vehicle>
    <vehicle id="veh82" depart="575.04">
        <route edges="-E9 E10"/>
    </vehicle>
    <vehicle id="veh987" depart="575.07">
        <route edges="-E13 -E12 -E8 E7 E11 E13"/>
    </vehicle>
    <vehicle id="veh747" depart="577.26">
        <route edges="-E13 -E12 -E8 E7 E11 E13"/>
    </vehicle>
    <vehicle id="veh834" depart="578.07">
        <route edges="-E6 E8 E12 E13"/>
    </vehicle>
    <vehicle id="veh347" depart="579.01">
        <route edges="-E4 E0 E7 E10"/>
    </vehicle>
    <vehicle id="veh98" depart="580.92">
        <route edges="-E2 E3 -E8 E6"/>
    </vehicle>
    <vehicle id="veh1125" depart="584.34">
        <route edges="-E2 E3 E12 E13"/>
    </vehicle>
    <vehicle id="veh699" depart="585.82">
        <route edges="-E6 E5 E2"/>
    </vehicle>
    <vehicle id="veh873" depart="586.81">
        <route edges="-E6 E7 E10"/>
    </vehicle>
    <vehicle id="veh1160" depart="590.20">
        <route edges="-E9 E11 E13"/>
    </vehicle>
    <vehicle id="veh1186" depart="592.65">
        <route edges="-E4 E0 E7 E11 E13"/>
    </vehicle>
    <vehicle id="veh477" depart="595.81">
        <route edges="-E4 E0 E7 E11 E13"/>
    </vehicle>
    <vehicle id="veh622" depart="597.25">
        <route edges="-E2 E3 -E8 E6"/>
    </vehicle>
    <vehicle id="veh791" depart="599.62">
        <route edges="-E4 E0 E7 E9"/>
    </vehicle>
    <vehicle id="veh868" depart="602.05">
        <route edges="-E2 E3 E12 -E11 E9"/>
    </vehicle>
    <vehicle id="veh338" depart="602.89">
        <route edges="-E10 -E7 E8 E14"/>
    </vehicle>
    <vehicle id="veh68" depart="609.55">
        <route edges="-E14 -E8 E7 E10"/>
    </vehicle>
    <vehicle id="veh189" depart="610.51">
        <route edges="-E4 E0 E7 E11 E13"/>
    </vehicle>
    <vehicle id="veh811" depart="613.68">
        <route edges="-E10 E11 -E12 -E8 E7 E10"/>
    </vehicle>
    <vehicle id="veh929" depart="614.05">
        <route edges="-E2 -E1 E0 E7 E10"/>
    </vehicle>
    <vehicle id="veh370" depart="617.76">
        <route edges="-E9 -E7 E6"/>
    </vehicle>
    <vehicle id="veh64" depart="617.76">
        <route edges="-E6 E7 E10"/>
    </vehicle>
    <vehicle id="veh282" depart="619.22">
        <route edges="-E6 E5 -E1 E0 E6"/>
    </vehicle>
    <vehicle id="veh1107" depart="621.67">
        <route edges="-E6 E7 E10"/>
    </vehicle>
    <vehicle id="veh1139" depart="624.19">
        <route edges="-E13 -E12 -E8 E6"/>
    </vehicle>
    <vehicle id="veh408" depart="625.10">
        <route edges="-E6 E8 E12 E13"/>
    </vehicle>
    <vehicle id="veh673" depart="627.32">
        <route edges="-E14 -E3 E2"/>
    </vehicle>
    <vehicle id="veh2" depart="628.88">
        <route edges="-E9 E11 -E12 -E8 E7 E9"/>
    </vehicle>
    <vehicle id="veh1076" depart="631.37">
        <route edges="-E4 E0 E7 E9"/>
    </vehicle>
    <vehicle id="veh104" depart="632.36">
        <route edges="-E2 E3 E12 E13"/>
    </vehicle>
    <vehicle id="veh156" depart="637.91">
        <route edges="-E9 E11 E13"/>
    </vehicle>
    <vehicle id="veh809" depart="645.06">
        <route edges="-E13 -E12 -E8 E6"/>
    </vehicle>
    <vehicle id="veh152" depart="646.17">
        <route edges="-E14 -E8 E5 E3 E14"/>
    </vehicle>
    <vehicle id="veh1065" depart="647.61">
        <route edges="-E13 -E12 -E8 E7 E11 E13"/>
    </vehicle>
    <vehicle id="veh855" depart="648.09">
        <route edges="-E14 -E8 E7 E10"/>
    </vehicle>
    <vehicle id="veh937" depart="649.38">
        <route edges="-E2 E3 -E8 E6"/>
    </vehicle>
    <vehicle id="veh394" depart="649.77">
        <route edges="-E13 -E12 -E8 E6"/>
    </vehicle>
    <vehicle id="veh202" depart="652.65">
        <route edges="-E9 E10"/>
    </vehicle>
    <vehicle id="veh739" depart="654.85">
        <route edges="-E13 -E12 -E8 E7 E11 E13"/>
    </vehicle>
    <vehicle id="veh393" depart="656.29">
        <route edges="-E2 E3 -E8 E6"/>
    </vehicle>
    <vehicle id="veh289" depart="661.34">
        <route edges="-E13 -E11 E9"/>
    </vehicle>
    <vehicle id="veh1132" depart="669.48">
        <route edges="-E14 -E8 E6"/>
    </vehicle>
    <vehicle id="veh686" depart="669.70">
        <route edges="-E6 E5 -E1 E0 E6"/>
    </vehicle>
    <vehicle id="veh950" depart="671.37">
        <route edges="-E13 -E12 E14"/>
    </vehicle>
    <vehicle id="veh190" depart="673.12">