<?xml version="1.0" encoding="UTF-8"?>

<!-- generated on 2026-06-13T16:47:49.623016+01:00 by Eclipse SUMO duarouter 1.26.0
<duarouterConfiguration xmlns:xsi="http://www.w3.org/2001/XMLSchema-instance" xsi:noNamespaceSchemaLocation="http://sumo.dlr.de/xsd/duarouterConfiguration.xsd">

    <input>
        <net-file value="C:\Users\rondo\Desktop\Sys auto projeekt\src\City_map_2\city2.net.xml"/>
        <route-files value="C:\Users\rondo\AppData\Local\Temp\city2_hard_train_0.trips.xml"/>
    </input>

    <output>
        <output-file value="C:\Users\rondo\Desktop\Sys auto projeekt\src\City_map_2\city2_hard_train_0.rou.xml"/>
    </output>

    <report>
        <no-warnings value="true"/>
        <ignore-errors value="true"/>
    </report>

    <random_number>
        <seed value="1000"/>
    </random_number>

</duarouterConfiguration>
-->

<routes xmlns:xsi="http://www.w3.org/2001/XMLSchema-instance" xsi:noNamespaceSchemaLocation="http://sumo.dlr.de/xsd/routes_file.xsd">
    <vehicle id="veh1250" depart="8.07">
        <route edges="-E10 -E7 -E0 E4"/>
    </vehicle>
    <vehicle id="veh726" depart="15.06">
        <route edges="-E14 -E3 E2"/>
    </vehicle>
    <vehicle id="veh96" depart="25.59">
        <route edges="-E14 E12 E13"/>
    </vehicle>
    <vehicle id="veh841" depart="39.23">
        <route edges="-E9 E10"/>
    </vehicle>
    <vehicle id="veh1564" depart="42.87">
        <route edges="-E9 E10"/>
    </vehicle>
    <vehicle id="veh575" depart="62.94">
        <route edges="-E14 -E8 E7 E10"/>
    </vehicle>
    <vehicle id="veh1074" depart="63.92">
        <route edges="-E2 E3 -E8 E6"/>
    </vehicle>
    <vehicle id="veh513" depart="87.42">
        <route edges="-E13 -E12 E14"/>
    </vehicle>
    <vehicle id="veh1659" depart="102.48">
        <route edges="-E9 E11 E13"/>
    </vehicle>
    <vehicle id="veh125" depart="115.30">
        <route edges="-E4 E0 E7 E11 E13"/>
    </vehicle>
    <vehicle id="veh1772" depart="121.89">
        <route edges="-E2 E3 E12 E13"/>
    </vehicle>
    <vehicle id="veh1362" depart="128.12">
        <route edges="-E10 -E7 E6"/>
    </vehicle>
    <vehicle id="veh1939" depart="132.29">
        <route edges="-E13 -E12 -E8 E7 E11 E13"/>
    </vehicle>
    <vehicle id="veh97" depart="138.16">
        <route edges="-E6 E8 E12 E13"/>
    </vehicle>
    <vehicle id="veh434" depart="151.35">
        <route edges="-E10 -E7 E5 E2"/>
    </vehicle>
    <vehicle id="veh1132" depart="169.43">
        <route edges="-E10 -E7 E6"/>
    </vehicle>
    <vehicle id="veh1500" depart="191.79">
        <route edges="-E6 E8 E12 E13"/>
    </vehicle>
    <vehicle id="veh1418" depart="218.60">
        <route edges="-E14 -E8 E7 E10"/>
    </vehicle>
    <vehicle id="veh85" depart="223.39">
        <route edges="-E6 E8 E12 E13"/>
    </vehicle>
    <vehicle id="veh1516" depart="242.47">
        <route edges="-E9 E10"/>
    </vehicle>
    <vehicle id="veh1575" depart="254.87">
        <route edges="-E2 E3 -E8 E6"/>
    </vehicle>
    <vehicle id="veh1879" depart="254.93">
        <route edges="-E2 E3 E12 E13"/>
    </vehicle>
    <vehicle id="veh1206" depart="261.93">
        <route edges="-E13 -E11 E10"/>
    </vehicle>
    <vehicle id="veh1028" depart="272.49">
        <route edges="-E9 -E7 E6"/>
    </vehicle>
    <vehicle id="veh1667" depart="285.28">
        <route edges="-E13 -E12 -E3 -E1 E4"/>
    </vehicle>
    <vehicle id="veh1426" depart="294.56">
        <route edges="-E6 E8 E12 E13"/>
    </vehicle>
    <vehicle id="veh1503" depart="301.47">
        <route edges="-E10 E11 -E12 -E8 E7 E10"/>
    </vehicle>
    <vehicle id="veh1827" depart="306.18">
        <route edges="-E4 E0 E7 E11 E13"/>
    </vehicle>
    <vehicle id="veh632" depart="312.75">
        <route edges="-E14 E12 -E11 E9"/>
    </vehicle>
    <vehicle id="veh1736" depart="321.26">
        <route edges="-E4 E0 E7 E11 E13"/>
    </vehicle>
    <vehicle id="veh1805" depart="323.89">
        <route edges="-E4 E0 E7 E10"/>
    </vehicle>
    <vehicle id="veh1919" depart="324.18">
        <route edges="-E4 E0 E7 E10"/>
    </vehicle>
    <vehicle id="veh1254" depart="337.76">
        <route edges="-E4 E0 E7 E11 E13"/>
    </vehicle>
    <vehicle id="veh542" depart="342.06">
        <route edges="-E4 E0 E6"/>
    </vehicle>
    <vehicle id="veh567" depart="350.97">
        <route edges="-E4 E0 E6"/>
    </vehicle>
    <vehicle id="veh264" depart="351.93">
        <route edges="-E4 E0 E6"/>
    </vehicle>
    <vehicle id="veh173" depart="352.21">
        <route edges="-E14 -E3 E2"/>
    </vehicle>
    <vehicle id="veh366" depart="353.05">
        <route edges="-E10 E11 -E12 -E8 E7 E10"/>
    </vehicle>
    <vehicle id="veh1799" depart="353.30">
        <route edges="-E4 E0 E6"/>
    </vehicle>
    <vehicle id="veh729" depart="353.43">
        <route edges="-E2 E3 E12 -E11 E9"/>
    </vehicle>
    <vehicle id="veh283" depart="357.55">
        <route edges="-E4 E0 E6"/>
    </vehicle>
    <vehicle id="veh136" depart="363.40">
        <route edges="-E2 E3 E14"/>
    </vehicle>
    <vehicle id="veh936" depart="367.61">
        <route edges="-E2 E3 E14"/>
    </vehicle>
    <vehicle id="veh1713" depart="374.30">
        <route edges="-E6 E7 E10"/>
    </vehicle>
    <vehicle id="veh919" depart="379.71">
        <route edges="-E4 E0 E7 E11 E13"/>
    </vehicle>
    <vehicle id="veh1239" depart="386.86">
        <route edges="-E4 E0 E6"/>
    </vehicle>
    <vehicle id="veh1153" depart="394.06">
        <route edges="-E14 -E8 E6"/>
    </vehicle>
    <vehicle id="veh1931" depart="398.14">
        <route edges="-E13 -E11 E10"/>
    </vehicle>
    <vehicle id="veh1457" depart="398.86">
        <route edges="-E9 E10"/>
    </vehicle>
    <vehicle id="veh514" depart="405.82">
        <route edges="-E9 E10"/>
    </vehicle>
    <vehicle id="veh1299" depart="413.19">
        <route edges="-E14 -E8 E7 E10"/>
    </vehicle>
    <vehicle id="veh893" depart="420.41">
        <route edges="-E13 -E12 -E8 E6"/>
    </vehicle>
    <vehicle id="veh1595" depart="422.14">
        <route edges="-E13 -E11 E10"/>
    </vehicle>
    <vehicle id="veh178" depart="422.75">
        <route edges="-E6 E8 E12 E13"/>
    </vehicle>
    <vehicle id="veh406" depart="427.23">
        <route edges="-E9 -E7 E6"/>
    </vehicle>
    <vehicle id="veh1535" depart="428.20">
        <route edges="-E6 E7 E10"/>
    </vehicle>
    <vehicle id="veh1229" depart="428.55">
        <route edges="-E4 E0 E7 E11 E13"/>
    </vehicle>
    <vehicle id="veh1167" depart="432.11">
        <route edges="-E10 E11 E13"/>
    </vehicle>
    <vehicle id="veh700" depart="433.90">
        <route edges="-E9 E11 E13"/>
    </vehicle>
    <vehicle id="veh1512" depart="437.97">
        <route edges="-E9 E10"/>
    </vehicle>
    <vehicle id="veh1730" depart="441.99">
        <route edges="-E4 E0 E6"/>
    </vehicle>
    <vehicle id="veh1862" depart="442.80">
        <route edges="-E6 E8 E12 E13"/>
    </vehicle>
    <vehicle id="veh1615" depart="443.91">
        <route edges="-E6 E8 E12 E13"/>
    </vehicle>
    <vehicle id="veh942" depart="448.08">
        <route edges="-E2 E3 -E8 E6"/>
    </vehicle>
    <vehicle id="veh1614" depart="450.54">
        <route edges="-E13 -E11 E10"/>
    </vehicle>
    <vehicle id="veh1085" depart="451.03">
        <route edges="-E10 E11 -E12 -E8 E7 E10"/>
    </vehicle>
    <vehicle id="veh265" depart="452.01">
        <route edges="-E10 E11 E13"/>
    </vehicle>
    <vehicle id="veh331" depart="454.77">
        <route edges="-E6 E8 E12 E13"/>
    </vehicle>
    <vehicle id="veh1343" depart="459.35">
        <route edges="-E14 E12 E13"/>
    </vehicle>
    <vehicle id="veh1399" depart="459.93">
        <route edges="-E13 -E11 E10"/>
    </vehicle>
    <vehicle id="veh735" depart="465.13">
        <route edges="-E9 -E7 E6"/>
    </vehicle>
    <vehicle id="veh1935" depart="472.79">
        <route edges="-E13 -E12 E14"/>
    </vehicle>
    <vehicle id="veh394" depart="473.29">
        <route edges="-E10 E11 -E12 -E8 E7 E10"/>
    </vehicle>
    <vehicle id="veh1536" depart="478.56">
        <route edges="-E10 -E7 E6"/>
    </vehicle>
    <vehicle id="veh354" depart="479.02">
        <route edges="-E6 E5 -E1 E0 E6"/>
    </vehicle>
    <vehicle id="veh891" depart="484.14">
        <route edges="-E9 E10"/>
    </vehicle>
    <vehicle id="veh1912" depart="486.61">
        <route edges="-E10 -E7 E6"/>
    </vehicle>
    <vehicle id="veh615" depart="490.28">
        <route edges="-E9 E11 E13"/>
    </vehicle>
    <vehicle id="veh869" depart="493.05">
        <route edges="-E4 E0 E7 E11 E13"/>
    </vehicle>
    <vehicle id="veh988" depart="498.34">
        <route edges="-E9 -E7 E6"/>
    </vehicle>
    <vehicle id="veh987" depart="500.35">
        <route edges="-E10 -E7 E6"/>
    </vehicle>
    <vehicle id="veh1087" depart="502.90">
        <route edges="-E6 E7 E10"/>
    </vehicle>
    <vehicle id="veh635" depart="507.25">
        <route edges="-E14 E12 E13"/>
    </vehicle>
    <vehicle id="veh1358" depart="507.70">
        <route edges="-E10 -E7 E6"/>
    </vehicle>
    <vehicle id="veh1670" depart="508.67">
        <route edges="-E9 E11 -E12 -E8 E7 E9"/>
    </vehicle>
    <vehicle id="veh851" depart="508.80">
        <route edges="-E4 E0 E6"/>
    </vehicle>
    <vehicle id="veh1552" depart="512.91">
        <route edges="-E2 -E1 E4"/>
    </vehicle>
    <vehicle id="veh846" depart="513.79">
        <route edges="-E2 E3 -E8 E6"/>
    </vehicle>
    <vehicle id="veh949" depart="514.48">
        <route edges="-E9 E10"/>
    </vehicle>
    <vehicle id="veh174" depart="515.55">
        <route edges="-E4 E0 E7 E10"/>
    </vehicle>
    <vehicle id="veh1004" depart="520.46">
        <route edges="-E10 E11 E13"/>
    </vehicle>
    <vehicle id="veh91" depart="521.60">
        <route edges="-E14 -E3 E2"/>
    </vehicle>
    <vehicle id="veh1409" depart="522.68">
        <route edges="-E4 E0 E8 E14"/>
    </vehicle>
    <vehicle id="veh757" depart="527.01">
        <route edges="-E2 E3 -E8 E6"/>
    </vehicle>
    <vehicle id="veh818" depart="527.40">
        <route edges="-E6 E8 E12 E13"/>
    </vehicle>
    <vehicle id="veh880" depart="532.06">
        <route edges="-E10 -E7 E6"/>
    </vehicle>
    <vehicle id="veh1873" depart="535.84">
        <route edges="-E14 -E8 E5 E3 E14"/>
    </vehicle>
    <vehicle id="veh1367" depart="539.16">
        <route edges="-E13 -E12 E14"/>
    </vehicle>
    <vehicle id="veh32" depart="547.29">
        <route edges="-E4 E0 E7 E10"/>
    </vehicle>
    <vehicle id="veh1200" depart="556.87">
        <route edges="-E4 E0 E7 E11 E13"/>
    </vehicle>
    <vehicle id="veh1750" depart="557.18">
        <route edges="-E13 -E12 -E8 E7 E11 E13"/>
    </vehicle>
    <vehicle id="veh1524" depart="557.28">
        <route edges="-E13 -E12 -E8 E7 E11 E13"/>
    </vehicle>
    <vehicle id="veh1092" depart="557.42">
        <route edges="-E6 E8 E12 E13"/>
    </vehicle>
    <vehicle id="veh695" depart="561.69">
        <route edges="-E13 -E12 -E8 E6"/>
    </vehicle>
    <vehicle id="veh548" depart="561.81">
        <route edges="-E9 -E7 E5 E2"/>
    </vehicle>
    <vehicle id="veh1582" depart="570.03">
        <route edges="-E14 -E8 E7 E10"/>
    </vehicle>
    <vehicle id="veh36" depart="570.14">
        <route edges="-E13 -E11 E9"/>
    </vehicle>
    <vehicle id="veh1877" depart="580.93">
        <route edges="-E2 -E1 E0 E7 E10"/>
    </vehicle>
    <vehicle id="veh256" depart="581.79">
        <route edges="-E10 E11 -E12 -E8 E7 E10"/>
    </vehicle>
    <vehicle id="veh915" depart="582.16">
        <route edges="-E10 E11 E13"/>
    </vehicle>
    <vehicle id="veh1427" depart="584.26">
        <route edges="-E4 E0 E7 E10"/>
    </vehicle>
    <vehicle id="veh1967" depart="586.27">
        <route edges="-E13 -E12 -E8 E7 E11 E13"/>
    </vehicle>
    <vehicle id="veh161" depart="589.92">
        <route edges="-E9 E10"/>
    </vehicle>
    <vehicle id="veh1388" depart="590.23">
        <route edges="-E2 -E1 E0 E7 E10"/>
    </vehicle>
    <vehicle id="veh126" depart="591.63">
        <route edges="-E10 E11 -E12 -E8 E7 E10"/>
    </vehicle>
    <vehicle id="veh751" depart="593.48">
        <route edges="-E2 E3 -E8 E6"/>
    </vehicle>
    <vehicle id="veh452" depart="599.64">
        <route edges="-E2 -E1 E0 E7 E10"/>
    </vehicle>
    <vehicle id="veh284" depart="601.71">
        <route edges="-E14 -E8 E6"/>
    </vehicle>
    <vehicle id="veh1637" depart="602.54">
        <route edges="-E9 -E7 E6"/>
    </vehicle>
    <vehicle id="veh1474" depart="604.43">
        <route edges="-E13 -E11 E10"/>
    </vehicle>
    <vehicle id="veh6" depart="608.34">
        <route edges="-E13 -E12 -E8 E7 E11 E13"/>
    </vehicle>
    <vehicle id="veh1717" depart="608.54">
        <route edges="-E14 -E8 E6"/>
    </vehicle>
    <vehicle id="veh995" depart="616.29">
        <route edges="-E2 -E1 E0 E7 E10"/>
    </vehicle>
    <vehicle id="veh905" depart="622.07">
        <route edges="-E2 E3 E12 E13"/>
    </vehicle>
    <vehicle id="veh1977" depart="623.64">
        <route edges="-E13 -E11 E10"/>
    </vehicle>
    <vehicle id="veh462" depart="624.45">
        <route edges="-E14 -E8 E6"/>
    </vehicle>
    <vehicle id="veh1211" depart="626.09">
        <route edges="-E4 E0 E7 E10"/>
    </vehicle>
    <vehicle id="veh57" depart="627.56">
        <route edges="-E4 E0 E7 E11 E13"/>
    </vehicle>
    <vehicle id="veh1844" depart="629.80">
        <route edges="-E14 E12 E13"/>
    </vehicle>
    <vehicle id="veh759" depart="633.57">
        <route edges="-E9 E10"/>
    </vehicle>
    <vehicle id="veh371" depart="635.39">
        <route edges="-E6 E7 E10"/>
    </vehicle>
    <vehicle id="veh1093" depart="640.28">
        <route edges="-E4 E0 E6"/>
    </vehicle>
    <vehicle id="veh404" depart="642.29">
        <route edges="-E10 E11 -E12 -E8 E7 E10"/>
    </vehicle>
    <vehicle id="veh1832" depart="643.31">
        <route edges="-E14 E12 E13"/>
    </vehicle>
    <vehicle id="veh254" depart="650.74">
        <route edges="-E13 -E12 -E3 -E1 E4"/>
    </vehicle>
    <vehicle id="veh128" depart="651.52">
        <route edges="-E14 E12 E13"/>
    </vehicle>
    <vehicle id="veh1652" depart="654.44">
        <route edges="-E6 E8 E12 E13"/>
    </vehicle>
    <vehicle id="veh906" depart="654.79">
        <route edges="-E6 E7 E10"/>
    </vehicle>
    <vehicle id="veh1130" depart="656.43">
        <route edges="-E10 E11 -E12 -E8 E7 E10"/>
    </vehicle>
    <vehicle id="veh1943" depart="658.45">
        <route edges="-E9 -E7 E6"/>
    </vehicle>
    <vehicle id="veh286" depart="658.50">
        <route edges="-E10 E11 E13"/>
    </vehicle>
    <vehicle id="veh1650" depart="660.64">
        <route edges="-E4 E0 E7 E11 E13"/>
    </vehicle>
    <vehicle id="veh795" depart="663.46">
        <route edges="-E14 E12 E13"/>
    </vehicle>
    <vehicle id="veh148" depart="664.16">
        <route edges="-E6 E8 E12 E13"/>
    </vehicle>
    <vehicle id="veh267" depart="664.93">
        <route edges="-E2 E3 -E8 E6"/>
    </vehicle>
    <vehicle id="veh1609" depart="669.82">
        <route edges="-E13 -E12 -E8 E7 E11 E13"/>
    </vehicle>
    <vehicle id="veh1083" depart="670.49">
        <route edges="-E13 -E12 -E8 E7 E11 E13"/>
    </vehicle>
    <vehicle id="veh536" depart="675.45">
        <route edges="-E10 -E7 E5 E2"/>
    </vehicle>
    <vehicle id="veh1949" depart="676.25">
        <route edges="-E4 E0 E6"/>
    </vehicle>
    <vehicle id="veh15" depart="677.15">
        <route edges="-E2 -E1 E0 E7 E10"/>
    </vehicle>
    <vehicle id="veh1110" depart="678.47">
        <route edges="-E14 -E8 E7 E10"/>
    </vehicle>
    <vehicle id="veh35" depart="678.48">
        <route edges="-E4 E0 E7 E10"/>
    </vehicle>
    <vehicle id="veh537" depart="679.31">
        <route edges="-E2 E3 -E8 E6"/>
    </vehicle>
    <vehicle id="veh135" depart="681.51">
        <route edges="-E6 E7 E10"/>
    </vehicle>
    <vehicle id="veh1054" depart="682.47">
        <route edges="-E9 E11 E13"/>
    </vehicle>
    <vehicle id="veh1761" depart="682.80">
        <route edges="-E4 E0 E7 E10"/>
    </vehicle>
    <vehicle id="veh402" depart="683.13">
        <route edges="-E4 E0 E7 E10"/>
    </vehicle>
    <vehicle id="veh415" depart="684.72">
        <route edges="-E4 E0 E7 E10"/>
    </vehicle>
    <vehicle id="veh1891" depart="687.62">
        <route edges="-E4 E0 E7 E11 E13"/>
    </vehicle>
    <vehicle id="veh1253" depart="688.67">
        <route edges="-E14 -E8 E7 E10"/>
    </vehicle>
    <vehicle id="veh1927" depart="691.39">
        <route edges="-E2 E3 E12 E13"/>
    </vehicle>
    <vehicle id="veh1312" depart="691.88">
        <route edges="-E9 E10"/>
    </vehicle>
    <vehicle id="veh221" depart="693.57">
        <route edges="-E10 E11 E13"/>
    </vehicle>
    <vehicle id="veh1476" depart="693.95">
        <route edges="-E14 E12 E13"/>
    </vehicle>
    <vehicle id="veh274" depart="694.80">
        <route edges="-E4 E0 E7 E10"/>
    </vehicle>
    <vehicle id="veh486" depart="695.41">
        <route edges="-E4 E0 E7 E11 E13"/>
    </vehicle>
    <vehicle id="veh1284" depart="695.73">
        <route edges="-E13 -E12 -E8 E7 E11 E13"/>
    </vehicle>
    <vehicle id="veh1458" depart="700.31">
        <route edges="-E14 -E8 E7 E10"/>
    </vehicle>
    <vehicle id="veh1531" depart="702.29">
        <route edges="-E6 E8 E12 E13"/>
    </vehicle>
    <vehicle id="veh1815" depart="704.22">
        <route edges="-E14 E12 E13"/>
    </vehicle>
    <vehicle id="veh589" depart="704.91">
        <route edges="-E9 -E7 E6"/>
    </vehicle>
    <vehicle id="veh1001" depart="704.99">
        <route edges="-E9 E11 E13"/>
    </vehicle>
    <vehicle id="veh1692" depart="710.41">
        <route edges="-E13 -E12 -E8 E7 E11 E13"/>
    </vehicle>
    <vehicle id="veh1947" depart="710.55">
        <route edges="-E10 E11 E13"/>
    </vehicle>
    <vehicle id="veh375" depart="711.11">
        <route edges="-E9 -E7 E5 E2"/>
    </vehicle>
    <vehicle id="veh372" depart="711.71">
        <route edges="-E4 E0 E6"/>
    </vehicle>
    <vehicle id="veh99" depart="714.88">
        <route edges="-E14 -E8 E6"/>
    </vehicle>
    <vehicle id="veh1996" depart="715.70">
        <route edges="-E2 -E1 E0 E7 E10"/>
    </vehicle>
    <vehicle id="veh62" depart="716.67">
        <route edges="-E9 E11 E13"/>
    </vehicle>
    <vehicle id="veh1599" depart="724.61">
        <route edges="-E14 E12 E13"/>
    </vehicle>
    <vehicle id="veh1494" depart="725.25">
        <route edges="-E13 -E11 E10"/>
    </vehicle>
    <vehicle id="veh228" depart="726.84">
        <route edges="-E4 E0 E6"/>
    </vehicle>
    <vehicle id="veh928" depart="726.91">
        <route edges="-E4 E0 E7 E10"/>
    </vehicle>
    <vehicle id="veh1497" depart="727.56">
        <route edges="-E13 -E12 -E3 E2"/>
    </vehicle>
    <vehicle id="veh1661" depart="730.69">
        <route edges="-E9 -E7 E6"/>
    </vehicle>
    <vehicle id="veh699" depart="731.30">
        <route edges="-E4 E0 E7 E11 E13"/>
    </vehicle>
    <vehicle id="veh1700" depart="735.70">
        <route edges="-E4 E0 E6"/>
    </vehicle>
    <vehicle id="veh1765" depart="736.87">
        <route edges="-E10 E11 -E12 -E8 E7 E10"/>
    </vehicle>
    <vehicle id="veh370" depart="737.76">
        <route edges="-E4 E0 E7 E10"/>
    </vehicle>
    <vehicle id="veh297" depart="737.98">
        <route edges="-E13 -E12 -E8 E6"/>
    </vehicle>
    <vehicle id="veh1685" depart="745.02">
        <route edges="-E4 E0 E7 E10"/>
    </vehicle>
    <vehicle id="veh1241" depart="748.24">
        <route edges="-E10 E11 E13"/>
    </vehicle>
    <vehicle id="veh972" depart="749.33">
        <route edges="-E4 E0 E7 E11 E13"/>
    </vehicle>
    <vehicle id="veh594" depart="749.78">
        <route edges="-E14 -E8 E5 E3 E14"/>
    </vehicle>
    <vehicle id="veh1709" depart="750.40">
        <route edges="-E10 E11 E13"/>
    </vehicle>
    <vehicle id="veh65" depart="751.00">
        <route edges="-E6 E8 E12 E13"/>
    </vehicle>
    <vehicle id="veh154" depart="754.62">
        <route edges="-E4 E0 E7 E11 E13"/>
    </vehicle>
    <vehicle id="veh1721" depart="756.70">
        <route edges="-E10 -E7 E6"/>
    </vehicle>
    <vehicle id="veh981" depart="757.11">
        <route edges="-E10 -E7 E6"/>
    </vehicle>
    <vehicle id="veh507" depart="757.79">
        <route edges="-E9 -E7 E5 E2"/>
    </vehicle>
    <vehicle id="veh515" depart="758.58">
        <route edges="-E10 -E7 E8 E14"/>
    </vehicle>
    <vehicle id="veh14" depart="759.98">
        <route edges="-E14 -E8 E7 E10"/>
    </vehicle>
    <vehicle id="veh767" depart="770.79">
        <route edges="-E10 -E7 E6"/>
    </vehicle>
    <vehicle id="veh603" depart="771.16">
        <route edges="-E9 E10"/>
    </vehicle>
    <vehicle id="veh1202" depart="775.04">
        <route edges="-E2 E3 -E8 E6"/>
    </vehicle>
    <vehicle id="veh991" depart="777.31">
        <route edges="-E2 E3 E12 E13"/>
    </vehicle>
    <vehicle id="veh1763" depart="782.01">
        <route edges="-E10 -E7 E6"/>
    </vehicle>
    <vehicle id="veh1584" depart="783.72">
        <route edges="-E14 -E8 E7 E10"/>
    </vehicle>
    <vehicle id="veh1419" depart="783.91">
        <route edges="-E9 E10"/>
    </vehicle>
    <vehicle id="veh982" depart="786.81">
        <route edges="-E14 E12 E13"/>
    </vehicle>
    <vehicle id="veh1782" depart="790.25">
        <route edges="-E4 E0 E7 E11 E13"/>
    </vehicle>
    <vehicle id="veh1053" depart="792.45">
        <route edges="-E13 -E12 -E8 E7 E11 E13"/>
    </vehicle>
    <vehicle id="veh414" depart="793.27">
        <route edges="-E10 E11 E13"/>
    </vehicle>
    <vehicle id="veh116" depart="794.01">
        <route edges="-E2 E3 E12 E13"/>
    </vehicle>
    <vehicle id="veh54" depart="794.92">
        <route edges="-E4 E0 E7 E11 E13"/>
    </vehicle>
    <vehicle id="veh1140" depart="798.23">
        <route edges="-E13 -E11 E10"/>
    </vehicle>
    <vehicle id="veh94" depart="799.32">
        <route edges="-E9 E11 E13"/>
    </vehicle>
    <vehicle id="veh1924" depart="801.93">
        <route edges="-E4 E0 E7 E10"/>
    </vehicle>
    <vehicle id="veh636" depart="803.61">
        <route edges="-E14 -E8 E7 E10"/>
    </vehicle>
    <vehicle id="veh1126" depart="805.76">
        <route edges="-E6 E8 E12 E13"/>
    </vehicle>
    <vehicle id="veh323" depart="807.96">
        <route edges="-E6 E5 -E1 E0 E6"/>
    </vehicle>
    <vehicle id="veh1160" depart="808.09">
        <route edges="-E6 E7 E10"/>
    </vehicle>
    <vehicle id="veh1885" depart="808.27">
        <route edges="-E14 -E8 E7 E10"/>
    </vehicle>
    <vehicle id="veh840" depart="808.76">
        <route edges="-E2 E3 E12 E13"/>
    </vehicle>
    <vehicle id="veh1804" depart="809.55">
        <route edges="-E9 E10"/>
    </vehicle>
    <vehicle id="veh810" depart="809.70">
        <route edges="-E13 -E12 -E8 E6"/>
    </vehicle>
    <vehicle id="veh1203" depart="809.80">
        <route edges="-E9 -E7 E6"/>
    </vehicle>
    <vehicle id="veh1746" depart="810.38">
        <route edges="-E9 E10"/>
    </vehicle>
    <vehicle id="veh1642" depart="811.65">
        <route edges="-E10 -E7 -E0 E4"/>
    </vehicle>
    <vehicle id="veh341" depart="812.52">
        <route edges="-E2 E3 -E8 E6"/>
    </vehicle>
    <vehicle id="veh1504" depart="813.69">
        <route edges="-E10 E11 -E12 -E8 E7 E10"/>
    </vehicle>
    <vehicle id="veh1174" depart="816.53">
        <route edges="-E13 -E11 E10"/>
    </vehicle>
    <vehicle id="veh44" depart="820.45">
        <route edges="-E4 E0 E7 E11 E13"/>
    </vehicle>
    <vehicle id="veh916" depart="823.14">
        <route edges="-E6 -E0 E4"/>
    </vehicle>
    <vehicle id="veh308" depart="823.44">
        <route edges="-E6 E5 E2"/>
    </vehicle>
    <vehicle id="veh1573" depart="823.81">
        <route edges="-E6 E5 -E1 E0 E6"/>
    </vehicle>
    <vehicle id="veh1925" depart="824.96">
        <route edges="-E2 -E1 E0 E5 E2"/>
    </vehicle>
    <vehicle id="veh1622" depart="826.36">
        <route edges="-E6 E8 E12 E13"/>
    </vehicle>
    <vehicle id="veh1475" depart="826.48">
        <route edges="-E14 -E8 E6"/>
    </vehicle>
    <vehicle id="veh234" depart="829.99">
        <route edges="-E6 E8 E12 E13"/>
    </vehicle>
    <vehicle id="veh1119" depart="832.26">
        <route edges="-E6 E8 E12 E13"/>
    </vehicle>
    <vehicle id="veh1856" depart="834.43">
        <route edges="-E4 E0 E7 E10"/>
    </vehicle>
    <vehicle id="veh1157" depart="835.58">
        <route edges="-E6 E8 E12 E13"/>
    </vehicle>
    <vehicle id="veh688" depart="838.27">
        <route edges="-E6 E8 E12 E13"/>
    </vehicle>
    <vehicle id="veh885" depart="838.77">
        <route edges="-E4 E0 E7 E11 E13"/>
    </vehicle>
    <vehicle id="veh1752" depart="844.51">
        <route edges="-E10 -E7 E5 E2"/>
    </vehicle>
    <vehicle id="veh1522" depart="844.54">
        <route edges="-E4 E0 E7 E11 E13"/>
    </vehicle>
    <vehicle id="veh296" depart="845.71">
        <route edges="-E14 E12 -E11 E9"/>
    </vehicle>
    <vehicle id="veh1207" depart="845.72">
        <route edges="-E2 -E1 E0 E7 E10"/>
    </vehicle>
    <vehicle id="veh1708" depart="847.06">
        <route edges="-E6 E7 E9"/>
    </vehicle>
    <vehicle id="veh1334" depart="848.00">
        <route edges="-E14 -E3 E2"/>
    </vehicle>
    <vehicle id="veh1473" depart="850.56">
        <route edges="-E9 E11 E13"/>
    </vehicle>
    <vehicle id="veh1278" depart="850.77">
        <route edges="-E14 -E8 E7 E10"/>
    </vehicle>
    <vehicle id="veh1158" depart="851.27">
        <route edges="-E6 E7 E10"/>
    </vehicle>
    <vehicle id="veh1364" depart="851.81">
        <route edges="-E9 E11 E13"/>
    </vehicle>
    <vehicle id="veh1127" depart="852.79">
        <route edges="-E6 E7 E10"/>
    </vehicle>
    <vehicle id="veh1558" depart="854.54">
        <route edges="-E14 E12 E13"/>
    </vehicle>
    <vehicle id="veh1759" depart="854.95">
        <route edges="-E14 -E8 E6"/>
    </vehicle>
    <vehicle id="veh1136" depart="857.17">
        <route edges="-E6 E7 E10"/>
    </vehicle>
    <vehicle id="veh1598" depart="857.62">
        <route edges="-E6 E8 E12 E13"/>
    </vehicle>
    <vehicle id="veh1129" depart="858.43">
        <route edges="-E14 -E8 E6"/>
    </vehicle>
    <vehicle id="veh1341" depart="858.60">
        <route edges="-E6 E7 E10"/>
    </vehicle>
    <vehicle id="veh1793" depart="858.89">
        <route edges="-E2 E3 -E8 E6"/>
    </vehicle>
    <vehicle id="veh890" depart="862.94">
        <route edges="-E9 E10"/>
    </vehicle>
    <vehicle id="veh1148" depart="864.06">
        <route edges="-E13 -E12 -E8 E7 E11 E13"/>
    </vehicle>
    <vehicle id="veh1610" depart="865.81">
        <route edges="-E9 E11 E13"/>
    </vehicle>
    <vehicle id="veh1895" depart="865.90">
        <route edges="-E6 E8 E14"/>
    </vehicle>
    <vehicle id="veh293" depart="866.38">
        <route edges="-E6 E7 E10"/>
    </vehicle>
    <vehicle id="veh1493" depart="871.04">
        <route edges="-E9 E11 E13"/>
    </vehicle>
    <vehicle id="veh51" depart="872.39">
        <route edges="-E10 E9"/>
    </vehicle>
    <vehicle id="veh1960" depart="872.71">
        <route edges="-E10 -E7 E6"/>
    </vehicle>
    <vehicle id="veh1141" depart="874.66">
        <route edges="-E6 E5 -E1 E0 E6"/>
    </vehicle>
    <vehicle id="veh804" depart="876.44">
        <route edges="-E13 -E11 E9"/>
    </vehicle>
    <vehicle id="veh693" depart="876.48">
        <route edges="-E14 -E8 E7 E10"/>
    </vehicle>
    <vehicle id="veh1769" depart="876.60">
        <route edges="-E4 E0 E7 E10"/>
    </vehicle>
    <vehicle id="veh1743" depart="877.62">
        <route edges="-E10 -E7 E6"/>
    </vehicle>
    <vehicle id="veh656" depart="877.85">
        <route edges="-E4 E0 E7 E11 E13"/>
    </vehicle>
    <vehicle id="veh550" depart="878.31">
        <route edges="-E14 E12 -E11 E9"/>
    </vehicle>
    <vehicle id="veh965" depart="878.82">
        <route edges="-E10 E11 -E12 -E8 E7 E10"/>
    </vehicle>
    <vehicle id="veh1057" depart="879.95">
        <route edges="-E2 E3 -E8 E6"/>
    </vehicle>
    <vehicle id="veh1408" depart="880.23">
        <route edges="-E2 -E1 E0 E7 E10"/>
    </vehicle>
    <vehicle id="veh450" depart="881.11">
        <route edges="-E13 -E12 -E8 E7 E11 E13"/>
    </vehicle>
    <vehicle id="veh61" depart="883.23">
        <route edges="-E13 -E11 E10"/>
    </vehicle>
    <vehicle id="veh384" depart="884.24">
        <route edges="-E10 -E7 E6"/>
    </vehicle>
    <vehicle id="veh1240" depart="884.43">
        <route edges="-E9 E11 E13"/>
    </vehicle>
    <vehicle id="veh1579" depart="886.03">
        <route edges="-E6 E7 E10"/>
    </vehicle>
    <vehicle id="veh1963" depart="887.89">
        <route edges="-E9 E11 E13"/>
    </vehicle>
    <vehicle id="veh1975" depart="888.18">
        <route edges="-E6 E7 E10"/>
    </vehicle>
    <vehicle id="veh1797" depart="891.32">
        <route edges="-E2 -E1 E0 E7 E10"/>
    </vehicle>
    <vehicle id="veh388" depart="891.94">
        <route edges="-E4 E0 E6"/>
    </vehicle>
    <vehicle id="veh344" depart="892.93">
        <route edges="-E9 -E7 E6"/>
    </vehicle>
    <vehicle id="veh278" depart="896.53">
        <route edges="-E14 -E8 -E0 E4"/>
    </vehicle>
    <vehicle id="veh1654" depart="896.66">
        <route edges="-E14 E12 E13"/>
    </vehicle>
    <vehicle id="veh472" depart="897.09">
        <route edges="-E9 E10"/>
    </vehicle>
    <vehicle id="veh377" depart="900.37">
        <route edges="-E9 E10"/>
    </vehicle>
    <vehicle id="veh1901" depart="902.46">
        <route edges="-E10 E11 -E12 -E8 E7 E10"/>
    </vehicle>
    <vehicle id="veh1641" depart="904.01">
        <route edges="-E14 -E8 E6"/>
    </vehicle>
    <vehicle id="veh118" depart="904.68">
        <route edges="-E14 -E8 E7 E10"/>
    </vehicle>
    <vehicle id="veh708" depart="905.02">
        <route edges="-E14 -E8 E5 E3 E14"/>
    </vehicle>