<?xml version="1.0" encoding="UTF-8"?>

<!-- generated on 2026-06-15T16:41:05.829195+01:00 by Eclipse SUMO duarouter 1.27.0
<duarouterConfiguration xmlns:xsi="http://www.w3.org/2001/XMLSchema-instance" xsi:noNamespaceSchemaLocation="http://sumo.dlr.de/xsd/duarouterConfiguration.xsd">

    <input>
        <net-file value="C:\Users\RODO\Desktop\Sys auto - Projekt\src\City_map_2\city2.net.xml"/>
        <route-files value="C:\Users\RODO\AppData\Local\Temp\city2_train_3.trips.xml"/>
    </input>

    <output>
        <output-file value="C:\Users\RODO\Desktop\Sys auto - Projekt\src\City_map_2\city2_train_3.rou.xml"/>
    </output>

    <report>
        <no-warnings value="true"/>
        <ignore-errors value="true"/>
    </report>

    <random_number>
        <seed value="1003"/>
    </random_number>

</duarouterConfiguration>
-->

<routes xmlns:xsi="http://www.w3.org/2001/XMLSchema-instance" xsi:noNamespaceSchemaLocation="http://sumo.dlr.de/xsd/routes_file.xsd">
    <vehicle id="veh6" depart="2.54">
        <route edges="-E13 -E12 -E3 -E1 E4"/>
    </vehicle>
    <vehicle id="veh522" depart="12.02">
        <route edges="-E9 E11 E13"/>
    </vehicle>
    <vehicle id="veh179" depart="18.13">
        <route edges="-E14 E12 E13"/>
    </vehicle>
    <vehicle id="veh286" depart="18.53">
        <route edges="-E9 -E7 E6"/>
    </vehicle>
    <vehicle id="veh960" depart="21.77">
        <route edges="-E10 -E7 E8 E14"/>
    </vehicle>
    <vehicle id="veh1051" depart="22.48">
        <route edges="-E14 -E8 E6"/>
    </vehicle>
    <vehicle id="veh70" depart="22.76">
        <route edges="-E10 E11 -E12 -E8 E7 E10"/>
    </vehicle>
    <vehicle id="veh869" depart="23.15">
        <route edges="-E14 -E8 E7 E10"/>
    </vehicle>
    <vehicle id="veh416" depart="24.12">
        <route edges="-E14 E12 E13"/>
    </vehicle>
    <vehicle id="veh868" depart="24.41">
        <route edges="-E9 -E7 -E0 E4"/>
    </vehicle>
    <vehicle id="veh220" depart="25.24">
        <route edges="-E14 -E8 E7 E10"/>
    </vehicle>
    <vehicle id="veh347" depart="25.74">
        <route edges="-E9 -E7 E6"/>
    </vehicle>
    <vehicle id="veh811" depart="26.12">
        <route edges="-E4 E0 E5 -E1 E4"/>
    </vehicle>
    <vehicle id="veh103" depart="30.68">
        <route edges="-E9 -E7 E6"/>
    </vehicle>
    <vehicle id="veh1196" depart="34.31">
        <route edges="-E14 E12 E13"/>
    </vehicle>
    <vehicle id="veh409" depart="34.47">
        <route edges="-E13 -E11 E10"/>
    </vehicle>
    <vehicle id="veh20" depart="37.02">
        <route edges="-E6 E5 E2"/>
    </vehicle>
    <vehicle id="veh662" depart="37.33">
        <route edges="-E13 -E11 E10"/>
    </vehicle>
    <vehicle id="veh1173" depart="40.03">
        <route edges="-E6 E5 -E1 E0 E6"/>
    </vehicle>
    <vehicle id="veh397" depart="43.42">
        <route edges="-E2 E3 -E8 E6"/>
    </vehicle>
    <vehicle id="veh184" depart="44.67">
        <route edges="-E2 -E1 E0 E7 E10"/>
    </vehicle>
    <vehicle id="veh77" depart="44.97">
        <route edges="-E14 E12 -E11 E9"/>
    </vehicle>
    <vehicle id="veh1130" depart="46.28">
        <route edges="-E9 E10"/>
    </vehicle>
    <vehicle id="veh93" depart="48.99">
        <route edges="-E4 E0 E7 E10"/>
    </vehicle>
    <vehicle id="veh994" depart="51.55">
        <route edges="-E4 E0 E7 E10"/>
    </vehicle>
    <vehicle id="veh480" depart="51.55">
        <route edges="-E14 E12 E13"/>
    </vehicle>
    <vehicle id="veh47" depart="56.48">
        <route edges="-E9 -E7 E6"/>
    </vehicle>
    <vehicle id="veh822" depart="59.97">
        <route edges="-E2 E3 E12 E13"/>
    </vehicle>
    <vehicle id="veh243" depart="60.65">
        <route edges="-E14 E12 E13"/>
    </vehicle>
    <vehicle id="veh331" depart="61.88">
        <route edges="-E14 -E8 E6"/>
    </vehicle>
    <vehicle id="veh568" depart="64.41">
        <route edges="-E9 -E7 E6"/>
    </vehicle>
    <vehicle id="veh778" depart="65.87">
        <route edges="-E13 -E12 -E8 E6"/>
    </vehicle>
    <vehicle id="veh985" depart="70.33">
        <route edges="-E14 E12 E13"/>
    </vehicle>
    <vehicle id="veh348" depart="71.74">
        <route edges="-E6 E8 E14"/>
    </vehicle>
    <vehicle id="veh1074" depart="74.44">
        <route edges="-E4 E0 E6"/>
    </vehicle>
    <vehicle id="veh1" depart="77.78">
        <route edges="-E2 -E1 E0 E7 E10"/>
    </vehicle>
    <vehicle id="veh656" depart="79.34">
        <route edges="-E2 -E1 E0 E7 E10"/>
    </vehicle>
    <vehicle id="veh721" depart="82.84">
        <route edges="-E13 -E12 -E8 E7 E11 E13"/>
    </vehicle>
    <vehicle id="veh208" depart="83.31">
        <route edges="-E9 -E7 E5 E2"/>
    </vehicle>
    <vehicle id="veh531" depart="87.69">
        <route edges="-E13 -E12 -E8 E6"/>
    </vehicle>
    <vehicle id="veh737" depart="88.19">
        <route edges="-E4 E0 E7 E11 E13"/>
    </vehicle>
    <vehicle id="veh845" depart="88.73">
        <route edges="-E9 E11 -E12 E14"/>
    </vehicle>
    <vehicle id="veh762" depart="90.26">
        <route edges="-E2 -E1 E0 E7 E10"/>
    </vehicle>
    <vehicle id="veh356" depart="90.44">
        <route edges="-E14 -E8 E5 E3 E14"/>
    </vehicle>
    <vehicle id="veh415" depart="90.70">
        <route edges="-E4 E0 E6"/>
    </vehicle>
    <vehicle id="veh91" depart="95.72">
        <route edges="-E10 -E7 E6"/>
    </vehicle>
    <vehicle id="veh201" depart="97.65">
        <route edges="-E13 -E11 E10"/>
    </vehicle>
    <vehicle id="veh310" depart="98.36">
        <route edges="-E6 E7 E10"/>
    </vehicle>
    <vehicle id="veh4" depart="98.99">
        <route edges="-E4 E0 E6"/>
    </vehicle>
    <vehicle id="veh523" depart="101.41">
        <route edges="-E10 -E7 -E0 E4"/>
    </vehicle>
    <vehicle id="veh505" depart="102.70">
        <route edges="-E10 E11 E13"/>
    </vehicle>
    <vehicle id="veh1150" depart="105.54">
        <route edges="-E14 -E8 E7 E10"/>
    </vehicle>
    <vehicle id="veh318" depart="106.98">
        <route edges="-E10 E11 E13"/>
    </vehicle>
    <vehicle id="veh905" depart="107.60">
        <route edges="-E2 E3 E14"/>
    </vehicle>
    <vehicle id="veh1023" depart="109.43">
        <route edges="-E10 E11 -E12 -E8 E7 E10"/>
    </vehicle>
    <vehicle id="veh535" depart="111.13">
        <route edges="-E10 E9"/>
    </vehicle>
    <vehicle id="veh1078" depart="111.24">
        <route edges="-E9 E11 E13"/>
    </vehicle>
    <vehicle id="veh373" depart="112.13">
        <route edges="-E6 E8 E12 E13"/>
    </vehicle>
    <vehicle id="veh1112" depart="114.80">
        <route edges="-E10 -E7 E6"/>
    </vehicle>
    <vehicle id="veh793" depart="116.15">
        <route edges="-E14 E12 E13"/>
    </vehicle>
    <vehicle id="veh122" depart="121.83">
        <route edges="-E14 -E8 E7 E10"/>
    </vehicle>
    <vehicle id="veh1092" depart="123.74">
        <route edges="-E13 -E11 E10"/>
    </vehicle>
    <vehicle id="veh353" depart="138.91">
        <route edges="-E6 E5 -E1 E0 E6"/>
    </vehicle>
    <vehicle id="veh471" depart="139.06">
        <route edges="-E6 E7 E10"/>
    </vehicle>
    <vehicle id="veh1020" depart="144.31">
        <route edges="-E2 E3 -E8 E6"/>
    </vehicle>
    <vehicle id="veh95" depart="144.97">
        <route edges="-E4 E0 E7 E11 E13"/>
    </vehicle>
    <vehicle id="veh171" depart="150.56">
        <route edges="-E9 E10"/>
    </vehicle>
    <vehicle id="veh334" depart="152.91">
        <route edges="-E13 -E12 -E8 E6"/>
    </vehicle>
    <vehicle id="veh685" depart="153.99">
        <route edges="-E6 E5 -E1 E0 E6"/>
    </vehicle>
    <vehicle id="veh788" depart="165.62">
        <route edges="-E6 E7 E9"/>
    </vehicle>
    <vehicle id="veh558" depart="167.02">
        <route edges="-E14 -E8 E7 E10"/>
    </vehicle>
    <vehicle id="veh311" depart="170.17">
        <route edges="-E9 -E7 E6"/>
    </vehicle>
    <vehicle id="veh445" depart="170.48">
        <route edges="-E9 -E7 E6"/>
    </vehicle>
    <vehicle id="veh890" depart="171.32">
        <route edges="-E14 -E8 E6"/>
    </vehicle>
    <vehicle id="veh696" depart="172.60">
        <route edges="-E13 -E12 -E8 E6"/>
    </vehicle>
    <vehicle id="veh349" depart="173.17">
        <route edges="-E4 E0 E7 E9"/>
    </vehicle>
    <vehicle id="veh368" depart="173.24">
        <route edges="-E6 E5 E2"/>
    </vehicle>
    <vehicle id="veh216" depart="182.13">
        <route edges="-E9 E10"/>
    </vehicle>
    <vehicle id="veh551" depart="183.36">
        <route edges="-E10 E11 E13"/>
    </vehicle>
    <vehicle id="veh5" depart="183.83">
        <route edges="-E13 -E12 -E3 -E1 E4"/>
    </vehicle>
    <vehicle id="veh529" depart="186.88">
        <route edges="-E10 E9"/>
    </vehicle>
    <vehicle id="veh956" depart="187.83">
        <route edges="-E13 -E11 E10"/>
    </vehicle>
    <vehicle id="veh876" depart="198.13">
        <route edges="-E13 -E12 -E8 E7 E11 E13"/>
    </vehicle>
    <vehicle id="veh962" depart="200.74">
        <route edges="-E6 E8 E14"/>
    </vehicle>
    <vehicle id="veh360" depart="213.88">
        <route edges="-E6 E7 E10"/>
    </vehicle>
    <vehicle id="veh110" depart="219.56">
        <route edges="-E14 -E8 E7 E10"/>
    </vehicle>
    <vehicle id="veh639" depart="219.70">
        <route edges="-E2 -E1 E0 E7 E10"/>
    </vehicle>
    <vehicle id="veh130" depart="219.70">
        <route edges="-E9 E11 -E12 -E8 E7 E9"/>
    </vehicle>
    <vehicle id="veh41" depart="220.07">
        <route edges="-E13 -E12 -E3 -E1 E4"/>
    </vehicle>
    <vehicle id="veh393" depart="221.88">
        <route edges="-E14 E12 E13"/>
    </vehicle>
    <vehicle id="veh1147" depart="222.46">
        <route edges="-E6 E8 E12 E13"/>
    </vehicle>
    <vehicle id="veh236" depart="224.70">
        <route edges="-E13 -E12 -E8 E7 E11 E13"/>
    </vehicle>
    <vehicle id="veh92" depart="225.97">
        <route edges="-E14 -E8 E7 E10"/>
    </vehicle>
    <vehicle id="veh776" depart="227.20">
        <route edges="-E9 -E7 E6"/>
    </vehicle>
    <vehicle id="veh804" depart="234.31">
        <route edges="-E6 E7 E10"/>
    </vehicle>
    <vehicle id="veh453" depart="241.88">
        <route edges="-E10 E11 E13"/>
    </vehicle>
    <vehicle id="veh1006" depart="244.18">
        <route edges="-E2 E3 -E8 E6"/>
    </vehicle>
    <vehicle id="veh1084" depart="244.39">
        <route edges="-E13 -E11 E9"/>
    </vehicle>
    <vehicle id="veh177" depart="244.67">
        <route edges="-E4 E0 E7 E11 E13"/>
    </vehicle>
    <vehicle id="veh429" depart="244.99">
        <route edges="-E6 E8 E12 E13"/>
    </vehicle>
    <vehicle id="veh628" depart="245.64">
        <route edges="-E4 E0 E6"/>
    </vehicle>
    <vehicle id="veh203" depart="247.86">
        <route edges="-E4 E0 E6"/>
    </vehicle>
    <vehicle id="veh559" depart="251.28">
        <route edges="-E2 E3 -E8 E6"/>
    </vehicle>
    <vehicle id="veh652" depart="254.17">
        <route edges="-E9 -E7 E6"/>
    </vehicle>
    <vehicle id="veh357" depart="254.61">
        <route edges="-E9 E11 -E12 E14"/>
    </vehicle>
    <vehicle id="veh108" depart="254.69">
        <route edges="-E4 E0 E6"/>
    </vehicle>
    <vehicle id="veh359" depart="260.66">
        <route edges="-E9 -E7 E6"/>
    </vehicle>
    <vehicle id="veh661" depart="262.12">
        <route edges="-E13 -E12 -E8 E7 E11 E13"/>
    </vehicle>
    <vehicle id="veh966" depart="264.00">
        <route edges="-E13 -E12 -E8 E7 E11 E13"/>
    </vehicle>
    <vehicle id="veh597" depart="268.84">
        <route edges="-E10 E11 E13"/>
    </vehicle>
    <vehicle id="veh366" depart="269.71">
        <route edges="-E6 E7 E10"/>
    </vehicle>
    <vehicle id="veh1066" depart="273.64">
        <route edges="-E2 E3 E12 E13"/>
    </vehicle>
    <vehicle id="veh205" depart="276.38">
        <route edges="-E10 -E7 -E0 E4"/>
    </vehicle>
    <vehicle id="veh1011" depart="278.29">
        <route edges="-E4 E0 E7 E11 E13"/>
    </vehicle>
    <vehicle id="veh516" depart="284.91">
        <route edges="-E4 E0 E5 -E1 E4"/>
    </vehicle>
    <vehicle id="veh806" depart="286.20">
        <route edges="-E9 -E7 E6"/>
    </vehicle>
    <vehicle id="veh339" depart="287.24">
        <route edges="-E4 E0 E7 E10"/>
    </vehicle>
    <vehicle id="veh379" depart="291.28">
        <route edges="-E4 E0 E6"/>
    </vehicle>
    <vehicle id="veh15" depart="292.82">
        <route edges="-E4 E1 E2"/>
    </vehicle>
    <vehicle id="veh399" depart="294.52">
        <route edges="-E4 E0 E8 E14"/>
    </vehicle>
    <vehicle id="veh658" depart="294.68">
        <route edges="-E4 E0 E8 E14"/>
    </vehicle>
    <vehicle id="veh355" depart="295.71">
        <route edges="-E4 E0 E6"/>
    </vehicle>
    <vehicle id="veh717" depart="295.74">
        <route edges="-E13 -E12 -E8 E6"/>
    </vehicle>
    <vehicle id="veh758" depart="299.71">
        <route edges="-E14 -E8 E6"/>
    </vehicle>
    <vehicle id="veh704" depart="306.20">
        <route edges="-E2 E3 E12 -E11 E9"/>
    </vehicle>
    <vehicle id="veh223" depart="309.67">
        <route edges="-E13 -E12 -E8 E6"/>
    </vehicle>
    <vehicle id="veh204" depart="310.21">
        <route edges="-E4 E0 E7 E10"/>
    </vehicle>
    <vehicle id="veh114" depart="316.62">
        <route edges="-E6 E8 E14"/>
    </vehicle>
    <vehicle id="veh341" depart="319.87">
        <route edges="-E2 -E1 E0 E7 E10"/>
    </vehicle>
    <vehicle id="veh998" depart="320.43">
        <route edges="-E13 -E12 -E8 E6"/>
    </vehicle>
    <vehicle id="veh790" depart="324.98">
        <route edges="-E9 -E7 E6"/>
    </vehicle>
    <vehicle id="veh874" depart="326.60">
        <route edges="-E4 E0 E6"/>
    </vehicle>
    <vehicle id="veh741" depart="327.84">
        <route edges="-E14 -E8 E7 E10"/>
    </vehicle>
    <vehicle id="veh214" depart="328.86">
        <route edges="-E4 E0 E7 E10"/>
    </vehicle>
    <vehicle id="veh951" depart="334.51">
        <route edges="-E4 E0 E6"/>
    </vehicle>
    <vehicle id="veh665" depart="335.28">
        <route edges="-E6 -E0 E4"/>
    </vehicle>
    <vehicle id="veh1060" depart="338.93">
        <route edges="-E2 E3 E12 -E11 E9"/>
    </vehicle>
    <vehicle id="veh1125" depart="344.60">
        <route edges="-E9 E10"/>
    </vehicle>
    <vehicle id="veh1048" depart="346.14">
        <route edges="-E14 -E8 E7 E10"/>
    </vehicle>
    <vehicle id="veh155" depart="346.45">
        <route edges="-E13 -E11 E10"/>
    </vehicle>
    <vehicle id="veh412" depart="347.25">
        <route edges="-E13 -E12 -E8 E6"/>
    </vehicle>
    <vehicle id="veh1144" depart="349.33">
        <route edges="-E6 E7 E10"/>
    </vehicle>
    <vehicle id="veh100" depart="352.47">
        <route edges="-E9 -E7 E6"/>
    </vehicle>
    <vehicle id="veh602" depart="362.40">
        <route edges="-E13 -E12 -E3 E2"/>
    </vehicle>
    <vehicle id="veh1067" depart="368.76">
        <route edges="-E14 -E8 E6"/>
    </vehicle>
    <vehicle id="veh687" depart="368.95">
        <route edges="-E13 -E11 E10"/>
    </vehicle>
    <vehicle id="veh343" depart="369.01">
        <route edges="-E10 E11 -E12 -E8 E7 E10"/>
    </vehicle>
    <vehicle id="veh458" depart="373.93">
        <route edges="-E14 -E8 -E0 E4"/>
    </vehicle>
    <vehicle id="veh1180" depart="377.90">
        <route edges="-E2 E3 E12 E13"/>
    </vehicle>
    <vehicle id="veh154" depart="382.03">
        <route edges="-E10 E11 E13"/>
    </vehicle>
    <vehicle id="veh487" depart="382.67">
        <route edges="-E13 -E12 E14"/>
    </vehicle>
    <vehicle id="veh325" depart="382.69">
        <route edges="-E6 E7 E10"/>
    </vehicle>
    <vehicle id="veh670" depart="384.67">
        <route edges="-E13 -E12 -E8 E7 E11 E13"/>
    </vehicle>
    <vehicle id="veh384" depart="388.71">
        <route edges="-E2 E3 -E8 E6"/>
    </vehicle>
    <vehicle id="veh1093" depart="389.89">
        <route edges="-E6 E8 E14"/>
    </vehicle>
    <vehicle id="veh920" depart="390.52">
        <route edges="-E4 E0 E6"/>
    </vehicle>
    <vehicle id="veh800" depart="392.59">
        <route edges="-E9 -E7 -E0 E4"/>
    </vehicle>
    <vehicle id="veh101" depart="393.05">
        <route edges="-E4 E0 E6"/>
    </vehicle>
    <vehicle id="veh288" depart="393.86">
        <route edges="-E6 E8 E12 E13"/>
    </vehicle>
    <vehicle id="veh784" depart="394.70">
        <route edges="-E6 E5 -E1 E0 E6"/>
    </vehicle>
    <vehicle id="veh906" depart="397.83">
        <route edges="-E6 E8 E12 E13"/>
    </vehicle>
    <vehicle id="veh11" depart="398.81">
        <route edges="-E9 E11 E13"/>
    </vehicle>
    <vehicle id="veh338" depart="401.03">
        <route edges="-E14 -E8 E7 E10"/>
    </vehicle>
    <vehicle id="veh42" depart="402.02">
        <route edges="-E2 E3 -E8 E6"/>
    </vehicle>
    <vehicle id="veh194" depart="402.03">
        <route edges="-E10 E11 E13"/>
    </vehicle>
    <vehicle id="veh838" depart="403.89">
        <route edges="-E9 -E7 E6"/>
    </vehicle>
    <vehicle id="veh256" depart="405.76">
        <route edges="-E9 -E7 E6"/>
    </vehicle>
    <vehicle id="veh467" depart="406.45">
        <route edges="-E14 -E8 E7 E10"/>
    </vehicle>
    <vehicle id="veh417" depart="415.23">
        <route edges="-E13 -E12 -E3 E2"/>
    </vehicle>
    <vehicle id="veh185" depart="418.72">
        <route edges="-E10 E11 E13"/>
    </vehicle>
    <vehicle id="veh532" depart="428.66">
        <route edges="-E13 -E12 -E8 E6"/>
    </vehicle>
    <vehicle id="veh1002" depart="430.99">
        <route edges="-E2 -E1 E0 E7 E10"/>
    </vehicle>
    <vehicle id="veh367" depart="431.67">
        <route edges="-E14 E12 E13"/>
    </vehicle>
    <vehicle id="veh1161" depart="433.19">
        <route edges="-E2 -E1 E0 E7 E10"/>
    </vehicle>
    <vehicle id="veh560" depart="433.88">
        <route edges="-E13 -E11 E10"/>
    </vehicle>
    <vehicle id="veh608" depart="434.17">
        <route edges="-E14 -E8 E6"/>
    </vehicle>
    <vehicle id="veh809" depart="436.94">
        <route edges="-E6 E5 -E1 E0 E6"/>
    </vehicle>
    <vehicle id="veh287" depart="443.56">
        <route edges="-E10 -E7 E8 E14"/>
    </vehicle>
    <vehicle id="veh32" depart="444.58">
        <route edges="-E2 -E1 E0 E7 E10"/>
    </vehicle>
    <vehicle id="veh354" depart="444.64">
        <route edges="-E4 E0 E6"/>
    </vehicle>
    <vehicle id="veh1102" depart="445.16">
        <route edges="-E10 -E7 E6"/>
    </vehicle>
    <vehicle id="veh404" depart="445.97">
        <route edges="-E14 -E8 E5 E3 E14"/>
    </vehicle>
    <vehicle id="veh85" depart="447.05">
        <route edges="-E6 E5 -E1 E0 E6"/>
    </vehicle>
    <vehicle id="veh14" depart="447.16">
        <route edges="-E14 -E8 E7 E10"/>
    </vehicle>
    <vehicle id="veh377" depart="453.94">
        <route edges="-E10 E11 -E12 -E8 E7 E10"/>
    </vehicle>
    <vehicle id="veh970" depart="454.82">
        <route edges="-E6 E8 E12 E13"/>
    </vehicle>
    <vehicle id="veh304" depart="454.92">
        <route edges="-E2 E3 -E8 E6"/>
    </vehicle>
    <vehicle id="veh1018" depart="457.63">
        <route edges="-E13 -E12 -E8 E6"/>
    </vehicle>
    <vehicle id="veh764" depart="459.47">
        <route edges="-E6 E5 -E1 E0 E6"/>
    </vehicle>
    <vehicle id="veh289" depart="459.99">
        <route edges="-E6 -E0 E4"/>
    </vehicle>
    <vehicle id="veh372" depart="460.52">
        <route edges="-E6 E8 E12 E13"/>
    </vehicle>
    <vehicle id="veh710" depart="461.05">
        <route edges="-E2 E3 E12 E13"/>
    </vehicle>
    <vehicle id="veh829" depart="464.29">
        <route edges="-E13 -E11 E10"/>
    </vehicle>
    <vehicle id="veh21" depart="470.86">
        <route edges="-E14 -E8 E6"/>
    </vehicle>
    <vehicle id="veh387" depart="471.70">
        <route edges="-E13 -E12 -E8 E7 E11 E13"/>
    </vehicle>
    <vehicle id="veh703" depart="472.59">
        <route edges="-E2 E3 -E8 E6"/>
    </vehicle>
    <vehicle id="veh745" depart="473.80">
        <route edges="-E2 -E1 E0 E7 E10"/>
    </vehicle>
    <vehicle id="veh596" depart="475.97">
        <route edges="-E10 -E7 E6"/>
    </vehicle>
    <vehicle id="veh1179" depart="479.61">
        <route edges="-E2 -E1 E0 E7 E10"/>
    </vehicle>
    <vehicle id="veh603" depart="479.73">
        <route edges="-E2 E3 E14"/>
    </vehicle>
    <vehicle id="veh1046" depart="480.90">
        <route edges="-E4 E0 E6"/>
    </vehicle>
    <vehicle id="veh686" depart="486.51">
        <route edges="-E13 -E12 -E8 E7 E11 E13"/>
    </vehicle>
    <vehicle id="veh1189" depart="488.17">
        <route edges="-E2 -E1 E0 E7 E10"/>
    </vehicle>
    <vehicle id="veh81" depart="491.30">
        <route edges="-E14 -E8 E7 E10"/>
    </vehicle>
    <vehicle id="veh281" depart="492.29">
        <route edges="-E13 -E12 -E8 E7 E11 E13"/>
    </vehicle>
    <vehicle id="veh333" depart="493.16">
        <route edges="-E6 E7 E9"/>
    </vehicle>
    <vehicle id="veh1056" depart="500.65">
        <route edges="-E2 -E1 E0 E7 E10"/>
    </vehicle>
    <vehicle id="veh860" depart="504.53">
        <route edges="-E9 -E7 E5 E2"/>
    </vehicle>
    <vehicle id="veh831" depart="507.19">
        <route edges="-E13 -E12 -E8 E7 E11 E13"/>
    </vehicle>
    <vehicle id="veh123" depart="508.11">
        <route edges="-E13 -E12 -E3 E2"/>
    </vehicle>
    <vehicle id="veh144" depart="508.98">
        <route edges="-E2 E3 E12 -E11 E9"/>
    </vehicle>
    <vehicle id="veh660" depart="514.21">
        <route edges="-E10 E11 E13"/>
    </vehicle>
    <vehicle id="veh374" depart="516.39">
        <route edges="-E14 E12 E13"/>
    </vehicle>
    <vehicle id="veh879" depart="521.47">
        <route edges="-E9 E10"/>
    </vehicle>
    <vehicle id="veh1140" depart="523.72">
        <route edges="-E6 E7 E10"/>
    </vehicle>
    <vehicle id="veh1008" depart="528.87">
        <route edges="-E10 E11 E13"/>
    </vehicle>
    <vehicle id="veh688" depart="530.63">
        <route edges="-E13 -E11 E10"/>
    </vehicle>
    <vehicle id="veh105" depart="532.28">
        <route edges="-E2 -E1 E0 E7 E10"/>
    </vehicle>
    <vehicle id="veh698" depart="536.27">
        <route edges="-E13 -E12 -E3 -E1 E4"/>
    </vehicle>
    <vehicle id="veh614" depart="536.90">
        <route edges="-E10 -E7 E5 E2"/>
    </vehicle>
    <vehicle id="veh394" depart="537.95">
        <route edges="-E13 -E12 -E8 E6"/>
    </vehicle>
    <vehicle id="veh852" depart="538.33">
        <route edges="-E13 -E11 E10"/>
    </vehicle>
    <vehicle id="veh844" depart="539.68">
        <route edges="-E6 E5 -E1 E0 E6"/>
    </vehicle>
    <vehicle id="veh327" depart="540.48">
        <route edges="-E2 -E1 E0 E7 E10"/>
    </vehicle>
    <vehicle id="veh650" depart="541.66">
        <route edges="-E10 -E7 E6"/>
    </vehicle>
    <vehicle id="veh1057" depart="552.74">
        <route edges="-E13 -E12 E14"/>
    </vehicle>
    <vehicle id="veh606" depart="556.00">
        <route edges="-E2 -E1 E0 E7 E10"/>
    </vehicle>
    <vehicle id="veh798" depart="556.28">
        <route edges="-E14 -E3 E2"/>
    </vehicle>
    <vehicle id="veh322" depart="557.17">
        <route edges="-E6 E5 -E1 E0 E6"/>
    </vehicle>
    <vehicle id="veh1127" depart="560.45">
        <route edges="-E9 -E7 E5 E2"/>
    </vehicle>
    <vehicle id="veh859" depart="567.68">
        <route edges="-E4 E0 E7 E11 E13"/>
    </vehicle>
    <vehicle id="veh1015" depart="570.35">
        <route edges="-E13 -E12 E14"/>
    </vehicle>
    <vehicle id="veh430" depart="571.08">
        <route edges="-E13 -E12 -E8 E7 E11 E13"/>
    </vehicle>
    <vehicle id="veh63" depart="572.98">
        <route edges="-E4 E0 E7 E11 E13"/>
    </vehicle>
    <vehicle id="veh856" depart="575.78">
        <route edges="-E13 -E12 E14"/>
    </vehicle>
    <vehicle id="veh1170" depart="588.80">
        <route edges="-E14 -E8 E7 E10"/>
    </vehicle>
    <vehicle id="veh176" depart="589.78">
        <route edges="-E10 E11 E13"/>
    </vehicle>
    <vehicle id="veh930" depart="590.74">
        <route edges="-E10 -E7 E6"/>
    </vehicle>
    <vehicle id="veh999" depart="593.23">
        <route edges="-E13 -E12 -E3 -E1 E4"/>
    </vehicle>
    <vehicle id="veh547" depart="594.79">
        <route edges="-E2 E3 -E8 E6"/>
    </vehicle>
    <vehicle id="veh514" depart="599.25">
        <route edges="-E6 E7 E10"/>
    </vehicle>
    <vehicle id="veh1113" depart="602.18">
        <route edges="-E6 E5 -E1 E0 E6"/>
    </vehicle>
    <vehicle id="veh866" depart="603.53">
        <route edges="-E2 E3 -E8 E6"/>
    </vehicle>
    <vehicle id="veh431" depart="603.87">
        <route edges="-E6 E7 E10"/>
    </vehicle>
    <vehicle id="veh756" depart="607.59">
        <route edges="-E10 E9"/>
    </vehicle>
    <vehicle id="veh989" depart="608.18">
        <route edges="-E10 E11 -E12 -E8 E7 E10"/>
    </vehicle>
    <vehicle id="veh13" depart="608.23">
        <route edges="-E13 -E11 E10"/>
    </vehicle>
    <vehicle id="veh878" depart="608.77">
        <route edges="-E13 -E11 E10"/>
    </vehicle>
    <vehicle id="veh104" depart="609.95">
        <route edges="-E14 -E8 E6"/>
    </vehicle>
    <vehicle id="veh169" depart="611.26">
        <route edges="-E14 E12 E13"/>
    </vehicle>
    <vehicle id="veh1030" depart="612.75">
        <route edges="-E13 -E11 E10"/>
    </vehicle>
    <vehicle id="veh1068" depart="617.73">
        <route edges="-E10 E9"/>
    </vehicle>
    <vehicle id="veh969" depart="619.46">
        <route edges="-E2 -E1 E0 E7 E10"/>
    </vehicle>
    <vehicle id="veh86" depart="620.47">
        <route edges="-E13 -E12 -E8 E7 E11 E13"/>
    </vehicle>
    <vehicle id="veh89" depart="628.51">
        <route edges="-E6 E7 E9"/>
    </vehicle>
    <vehicle id="veh134" depart="632.70">
        <route edges="-E2 E3 E12 E13"/>
    </vehicle>
    <vehicle id="veh601" depart="642.54">
        <route edges="-E13 -E11 E10"/>
    </vehicle>
    <vehicle id="veh898" depart="645.83">
        <route edges="-E13 -E11 E10"/>
    </vehicle>
    <vehicle id="veh1119" depart="646.36">
        <route edges="-E2 E3 E14"/>
    </vehicle>
    <vehicle id="veh540" depart="646.75">
        <route edges="-E9 E11 E13"/>
    </vehicle>
    <vehicle id="veh295" depart="647.78">
        <route edges="-E4 E0 E7 E11 E13"/>
    </vehicle>
    <vehicle id="veh684" depart="653.21">
        <route edges="-E9 E11 E13"/>
    </vehicle>
    <vehicle id="veh506" depart="654.83">
        <route edges="-E6 E7 E10"/>
    </vehicle>
    <vehicle id="veh616" depart="655.58">
        <route edges="-E6 E7 E10"/>
    </vehicle>
    <vehicle id="veh273" depart="659.08">
        <route edges="-E14 E12 E13"/>
    </vehicle>
    <vehicle id="veh425" depart="663.03">
        <route edges="-E14 -E3 E2"/>
    </vehicle>
    <vehicle id="veh893" depart="663.88">
        <route edges="-E4 E0 E7 E11 E13"/>
    </vehicle>
    <vehicle id="veh697" depart="666.30">
        <route edges="-E13 -E11 E9"/>
    </vehicle>
    <vehicle id="veh961" depart="668.91">
        <route edges="-E6 -E0 E4"/>
    </vehicle>
    <vehicle id="veh457" depart="669.32">
        <route edges="-E4 E0 E7 E10"/>
    </vehicle>
    <vehicle id="veh508" depart="669.62">
        <route edges="-E4 E0 E7 E11 E13"/>
    </vehicle>
    <vehicle id="veh820" depart="674.95">
        <route edges="-E14 -E8 E7 E10"/>
    </vehicle>
    <vehicle id="veh336" depart="675.58">
        <route edges="-E6 E8 E12 E13"/>
    </vehicle>
    <vehicle id="veh888" depart="677.28">
        <route edges="-E4 E0 E7 E11 E13"/>
    </vehicle>
    <vehicle id="veh489" depart="678.02">
        <route edges="-E4 E0 E6"/>
    </vehicle>
    <vehicle id="veh739" depart="681.96">
        <route edges="-E14 E12 E13"/>
    </vehicle>
    <vehicle id="veh751" depart="683.37">
        <route edges="-E6 E5 -E1 E0 E6"/>
    </vehicle>
    <vehicle id="veh611" depart="684.36">
        <route edges="-E13 -E11 E10"/>
    </vehicle>
    <vehicle id="veh410" depart="688.11">
        <route edges="-E9 -E7 E6"/>
    </vehicle>
    <vehicle id="veh1164" depart="696.66">
        <route edges="-E10 -E7 E6"/>
    </vehicle>
    <vehicle id="veh940" depart="701.42">
        <route edges="-E10 E11 E13"/>
    </vehicle>
    <vehicle id="veh765" depart="701.55">
        <route edges="-E6 E5 E2"/>
    </vehicle>
    <vehicle id="veh1141" depart="701.95">
        <route edges="-E6 E7 E10"/>
    </vehicle>
    <vehicle id="veh398" depart="705.12">
        <route edges="-E6 E8 E12 E13"/>
    </vehicle>
    <vehicle id="veh885" depart="709.99">
        <route edges="-E2 E3 -E8 E6"/>
    </vehicle>
    <vehicle id="veh973" depart="710.13">
        <route edges="-E14 E12 -E11 E9"/>
    </vehicle>
    <vehicle id="veh206" depart="712.73">
        <route edges="-E10 E11 -E12 -E8 E7 E10"/>
    </vehicle>
    <vehicle id="veh959" depart="713.30">
        <route edges="-E14 E12 E13"/>
    </vehicle>
    <vehicle id="veh39" depart="714.81">
        <route edges="-E10 -E7 E6"/>
    </vehicle>
    <vehicle id="veh1019" depart="716.01">
        <route edges="-E13 -E12 -E8 E7 E11 E13"/>
    </vehicle>
    <vehicle id="veh1122" depart="718.97">
        <route edges="-E9 E11 -E12 -E8 E7 E9"/>
    </vehicle>
    <vehicle id="veh7" depart="721.71">
        <route edges="-E2 E3 E12 E13"/>
    </vehicle>
    <vehicle id="veh803" depart="722.19">
        <route edges="-E6 E8 E12 E13"/>
    </vehicle>
    <vehicle id="veh1108" depart="724.31">
        <route edges="-E13 -E12 -E8 E6"/>
    </vehicle>
    <vehicle id="veh1097" depart="724.42">
        <route edges="-E6 E5 -E1 E0 E6"/>
    </vehicle>
    <vehicle id="veh1076" depart="724.93">
        <route edges="-E13 -E11 E9"/>
    </vehicle>
    <vehicle id="veh871" depart="727.48">
        <route edges="-E9 E10"/>
    </vehicle>
    <vehicle id="veh578" depart="727.51">
        <route edges="-E14 E12 E13"/>
    </vehicle>
    <vehicle id="veh465" depart="733.33">
        <route edges="-E4 E0 E6"/>
    </vehicle>
    <vehicle id="veh36" depart="736.70">
        <route edges="-E13 -E12 -E8 E6"/>
    </vehicle>
    <vehicle id="veh1063" depart="736.84">